                                  MODFLOW-2005     
      U.S. GEOLOGICAL SURVEY MODULAR FINITE-DIFFERENCE GROUND-WATER FLOW MODEL
                            VERSION 1.12.00 2/3/2017

 LIST FILE: my_pumping_model.list
                         UNIT    2

 OPENING my_pumping_model.dis
 FILE TYPE:DIS   UNIT   11   STATUS:OLD    
 FORMAT:FORMATTED              ACCESS:SEQUENTIAL          

 OPENING my_pumping_model.bas
 FILE TYPE:BAS6   UNIT   13   STATUS:OLD    
 FORMAT:FORMATTED              ACCESS:SEQUENTIAL          

 OPENING my_pumping_model.lpf
 FILE TYPE:LPF   UNIT   15   STATUS:OLD    
 FORMAT:FORMATTED              ACCESS:SEQUENTIAL          

 OPENING my_pumping_model.wel
 FILE TYPE:WEL   UNIT   20   STATUS:OLD    
 FORMAT:FORMATTED              ACCESS:SEQUENTIAL          

 OPENING my_pumping_model.oc
 FILE TYPE:OC   UNIT   14   STATUS:OLD    
 FORMAT:FORMATTED              ACCESS:SEQUENTIAL          

 OPENING my_pumping_model.pcg
 FILE TYPE:PCG   UNIT   27   STATUS:OLD    
 FORMAT:FORMATTED              ACCESS:SEQUENTIAL          

 OPENING my_pumping_model.cbc
 FILE TYPE:DATA(BINARY)   UNIT    1   STATUS:REPLACE
 FORMAT:BINARY                 ACCESS:SEQUENTIAL          

 OPENING my_pumping_model.hds
 FILE TYPE:DATA(BINARY)   UNIT   51   STATUS:REPLACE
 FORMAT:BINARY                 ACCESS:SEQUENTIAL          

 BAS -- BASIC PACKAGE, VERSION 7, 5/2/2005 INPUT READ FROM UNIT   13
 
 MODFLOW was compiled using mixed precision
 Precision of REAL variables:           6
 Precision of DOUBLE PRECISION variables:          15

 DISCRETIZATION INPUT DATA READ FROM UNIT   11
 # DIS package for  MODFLOW-2005, generated by Flopy.
    1 LAYERS       205 ROWS       225 COLUMNS
    1 STRESS PERIOD(S) IN SIMULATION
 MODEL TIME UNIT IS DAYS
 MODEL LENGTH UNIT IS METERS
  Confining bed flag for each layer:
   0

                     DELR =   625.000    

                     DELC =   625.000    

 TOP ELEVATION OF LAYER 1 =   0.00000    

   MODEL LAYER BOTTOM EL. =  -50.0000     FOR LAYER   1


 STRESS PERIOD     LENGTH       TIME STEPS     MULTIPLIER FOR DELT    SS FLAG
 ----------------------------------------------------------------------------
        1         1.000000          1                    1.000         SS

 STEADY-STATE SIMULATION



 
 # BAS6 package for  MODFLOW-2005, generated by Flopy.                           
 THE FREE FORMAT OPTION HAS BEEN SELECTED



                     BOUNDARY ARRAY FOR LAYER   1
 READING ON UNIT   13 WITH FORMAT: (225I10)            

 AQUIFER HEAD WILL BE SET TO  -999.99     AT ALL NO-FLOW NODES (IBOUND=0).



                       INITIAL HEAD FOR LAYER   1
 READING ON UNIT   13 WITH FORMAT: (225E15.6)          
 # OC package for  MODFLOW-2005, generated by Flopy.

 OUTPUT CONTROL IS SPECIFIED ONLY AT TIME STEPS FOR WHICH OUTPUT IS DESIRED
 COMPACT CELL-BY-CELL BUDGET FILES WILL BE WRITTEN
 AUXILIARY DATA WILL BE SAVED IN CELL-BY-CELL BUDGET FILES
 HEAD PRINT FORMAT CODE IS   0    DRAWDOWN PRINT FORMAT CODE IS   0
 HEADS WILL BE SAVED ON UNIT   51    DRAWDOWNS WILL BE SAVED ON UNIT    0

 LPF -- LAYER-PROPERTY FLOW PACKAGE, VERSION 7, 5/2/2005
         INPUT READ FROM UNIT   15
 # LPF package for  MODFLOW-2005, generated by Flopy.
 CELL-BY-CELL FLOWS WILL BE SAVED ON UNIT    1
 HEAD AT CELLS THAT CONVERT TO DRY= -1.00000E+30
 No named parameters

   LAYER FLAGS:
 LAYER       LAYTYP        LAYAVG         CHANI        LAYVKA        LAYWET
 ---------------------------------------------------------------------------
    1             0             0     1.000E+00             0             0

   INTERPRETATION OF LAYER FLAGS:
                        INTERBLOCK     HORIZONTAL    DATA IN
         LAYER TYPE   TRANSMISSIVITY   ANISOTROPY   ARRAY VKA   WETTABILITY
 LAYER      (LAYTYP)      (LAYAVG)       (CHANI)      (LAYVKA)      (LAYWET)
 ---------------------------------------------------------------------------
    1      CONFINED      HARMONIC     1.000E+00    VERTICAL K  NON-WETTABLE

 WETTING CAPABILITY IS NOT ACTIVE IN ANY LAYER



              HYD. COND. ALONG ROWS FOR LAYER   1
 READING ON UNIT   15 WITH FORMAT: (225E15.6)          



                VERTICAL HYD. COND. FOR LAYER   1
 READING ON UNIT   15 WITH FORMAT: (225E15.6)          

 WEL -- WELL PACKAGE, VERSION 7, 5/2/2005 INPUT READ FROM UNIT   20
 # WEL package for  MODFLOW-2005, generated by Flopy.
 No named parameters
 MAXIMUM OF    318 ACTIVE WELLS AT ONE TIME


     0 Well parameters

 PCG -- CONJUGATE-GRADIENT SOLUTION PACKAGE, VERSION 7, 5/2/2005
 # PCG package for  MODFLOW-2005, generated by Flopy.
 MAXIMUM OF     50 CALLS OF SOLUTION ROUTINE
 MAXIMUM OF     30 INTERNAL ITERATIONS PER CALL TO SOLUTION ROUTINE
 MATRIX PRECONDITIONING TYPE :    1



                                    SOLUTION BY THE CONJUGATE-GRADIENT METHOD
                                   -------------------------------------------
                    MAXIMUM NUMBER OF CALLS TO PCG ROUTINE =       50
                        MAXIMUM ITERATIONS PER CALL TO PCG =       30
                               MATRIX PRECONDITIONING TYPE =        1
        RELAXATION FACTOR (ONLY USED WITH PRECOND. TYPE 1) =    0.10000E+01
 PARAMETER OF POLYNOMIAL PRECOND. = 2 (2) OR IS CALCULATED :        0
                         HEAD CHANGE CRITERION FOR CLOSURE =    0.10000E-04
                     RESIDUAL CHANGE CRITERION FOR CLOSURE =    0.10000E-04
            PCG HEAD AND RESIDUAL CHANGE PRINTOUT INTERVAL =      999
     PRINTING FROM SOLVER IS LIMITED(1) OR SUPPRESSED (>1) =        3
                            STEADY-STATE DAMPING PARAMETER =    0.10000E+01
                               TRANSIENT DAMPING PARAMETER =    0.10000E+01
1
                            STRESS PERIOD NO.    1, LENGTH =   1.000000    
                            -----------------------------------------------

                              NUMBER OF TIME STEPS =     1

                               MULTIPLIER FOR DELT =     1.000

                            INITIAL TIME STEP SIZE =   1.000000    

 WELL NO.  LAYER   ROW   COL   STRESS RATE         
 --------------------------------------------------
      1      1     60     20       0.000    
      2      1    136     23       0.000    
      3      1    181     28       0.000    
      4      1    150     29       0.000    
      5      1    129     29       0.000    
      6      1    111     30      -88.00    
      7      1    111     32      -88.00    
      8      1     40     33       0.000    
      9      1    116     35       0.000    
     10      1    116     35      -8816.    
     11      1    110     35      -1924.    
     12      1    110     36      -5771.    
     13      1    111     37      -39.00    
     14      1    154     40       0.000    
     15      1    155     40       0.000    
     16      1    155     41       0.000    
     17      1     30     43      -481.0    
     18      1     27     45      -310.0    
     19      1    158     46       0.000    
     20      1     61     46       0.000    
     21      1     61     46       0.000    
     22      1     62     47       0.000    
     23      1    153     47      -105.0    
     24      1    160     48     -0.3172E+05
     25      1    160     48     -0.1628E+05
     26      1     59     51     -0.4961E+05
     27      1     59     51       0.000    
     28      1     59     54     -0.2807E+05
     29      1     61     55     -0.2250E+05
     30      1     32     69       0.000    
     31      1    181     71      -6.000    
     32      1     78     73       0.000    
     33      1    122     74       0.000    
     34      1     52     75       0.000    
     35      1     51     75       0.000    
     36      1    121     76       0.000    
     37      1     23     76      -791.0    
     38      1     58     76     -0.1122E+06
     39      1     58     76     -0.1122E+06
     40      1     58     76       0.000    
     41      1    129     79       0.000    
     42      1    129     79       0.000    
     43      1    129     79       0.000    
     44      1    129     79       0.000    
     45      1    129     79       0.000    
     46      1     49     79       0.000    
     47      1     30     82       0.000    
     48      1     58     84     -0.4349E+05
     49      1    174     85      -62.00    
     50      1     59     87       0.000    
     51      1    183     88       0.000    
     52      1     58     88     -0.5324E+05
     53      1     58     88      -1692.    
     54      1     60     88      -924.0    
     55      1     60     88      -1420.    
     56      1    123     88       0.000    
     57      1     83     95      -11.00    
     58      1     83     95       0.000    
     59      1    114     97       0.000    
     60      1    114     97       0.000    
     61      1    113     98       0.000    
     62      1    116    105      -15.00    
     63      1      8    109       0.000    
     64      1    102    111     -0.5920E+05
     65      1    102    112     -0.5920E+05
     66      1    104    112     -0.5920E+05
     67      1    100    114       0.000    
     68      1    100    114       0.000    
     69      1     99    114       0.000    
     70      1     99    114       0.000    
     71      1    200    116       0.000    
     72      1     83    117       0.000    
     73      1    106    117       0.000    
     74      1    106    118     -0.1100E+06
     75      1     49    118       0.000    
     76      1    108    119       0.000    
     77      1    106    119     -0.1100E+06
     78      1    109    119     -0.1100E+06
     79      1    106    119       0.000    
     80      1    188    120       0.000    
     81      1    189    120       0.000    
     82      1    189    120       0.000    
     83      1    188    120      -8851.    
     84      1     41    124       0.000    
     85      1      4    124       0.000    
     86      1     87    125       0.000    
     87      1     87    125       0.000    
     88      1     17    125       0.000    
     89      1     10    126       0.000    
     90      1     11    126       0.000    
     91      1     11    126       0.000    
     92      1     10    127       0.000    
     93      1     30    127       0.000    
     94      1     30    127       0.000    
     95      1     42    128       0.000    
     96      1     18    129      -363.0    
     97      1     11    129       0.000    
     98      1     17    130      -363.0    
     99      1     59    130       0.000    
    100      1    113    130       0.000    
    101      1     92    131     -0.1132E+05
    102      1    153    131      -252.0    
    103      1     10    131       0.000    
    104      1     10    131       0.000    
    105      1     10    131       0.000    
    106      1     81    132      -806.0    
    107      1     81    132      -2120.    
    108      1     38    134       0.000    
    109      1     33    134     -0.2317E+05
    110      1    117    134       0.000    
    111      1    117    134       0.000    
    112      1    117    134       0.000    
    113      1     83    134      -175.0    
    114      1     95    135      -1164.    
    115      1     26    136     -0.9181E+05
    116      1     17    139      -105.0    
    117      1     19    139      -1397.    
    118      1     55    139      -9878.    
    119      1    130    140      -2560.    
    120      1    130    141      -2259.    
    121      1    130    141      -583.0    
    122      1     54    141     -0.1518E+05
    123      1     18    143     -0.5956E+05
    124      1    162    145      -1377.    
    125      1    132    146     -0.4087E+05
    126      1    132    146       0.000    
    127      1      2    147     -0.7466E+05
    128      1    154    148      -1046.    
    129      1    133    148      -1963.    
    130      1     81    149      -616.0    
    131      1     23    150     -0.4140E+05
    132      1    142    150      -1102.    
    133      1     82    150       0.000    
    134      1     82    150       0.000    
    135      1    142    150      -650.0    
    136      1    135    150       0.000    
    137      1      8    151     -0.5531E+05
    138      1     43    151     -0.7509E+05
    139      1     17    152      -2793.    
    140      1     17    152      -14.00    
    141      1    111    154      -1925.    
    142      1    132    156       0.000    
    143      1     62    157      -1242.    
    144      1    134    159       0.000    
    145      1     46    161     -0.3551E+05
    146      1    132    161     -0.1229E+05
    147      1    121    161      -217.0    
    148      1    186    162       0.000    
    149      1     51    163       0.000    
    150      1     50    164       0.000    
    151      1     92    164     -0.2829E+05
    152      1     92    164     -0.2746E+05
    153      1    202    166     -0.1484E+05
    154      1     27    167       0.000    
    155      1     42    169       0.000    
    156      1     66    169      -7653.    
    157      1     60    169     -0.1022E+06
    158      1     60    169     -0.5306E+05
    159      1    109    170      -510.0    
    160      1     70    171       0.000    
    161      1     40    172     -0.3974E+05
    162      1    141    172      -1185.    
    163      1     88    173       0.000    
    164      1     55    173       0.000    
    165      1     55    173       0.000    
    166      1     55    173       0.000    
    167      1    195    175     -0.1324E+05
    168      1    191    175       0.000    
    169      1     19    176     -0.2663E+05
    170      1     19    177       0.000    
    171      1     59    177      -44.00    
    172      1    188    178     -0.1413E+05
    173      1     12    178       0.000    
    174      1    176    179       0.000    
    175      1    176    179      -17.00    
    176      1    139    179       0.000    
    177      1    140    179     -0.1249E+05
    178      1     62    179     -0.5559E+05
    179      1     53    180       0.000    
    180      1    131    180      -1224.    
    181      1    116    180     -0.5859E+05
    182      1    141    180     -0.1865E+05
    183      1    141    180       0.000    
    184      1    142    180       0.000    
    185      1    142    180      -1352.    
    186      1     80    181       0.000    
    187      1    116    181     -0.7438E+05
    188      1     30    182       0.000    
    189      1     30    182       0.000    
    190      1     67    182       0.000    
    191      1     37    182       0.000    
    192      1     44    182      -8162.    
    193      1    139    183     -0.4051E+05
    194      1    121    183       0.000    
    195      1     76    183       0.000    
    196      1    120    184       0.000    
    197      1     75    184       0.000    
    198      1     76    184       0.000    
    199      1     76    184       0.000    
    200      1     76    184       0.000    
    201      1    126    185       0.000    
    202      1    126    185      -65.00    
    203      1     37    185      -67.00    
    204      1     37    185       0.000    
    205      1     65    186       0.000    
    206      1    134    186      -1721.    
    207      1    134    186      -2072.    
    208      1    134    187      -655.0    
    209      1    180    187       0.000    
    210      1     45    188       0.000    
    211      1     17    189       0.000    
    212      1      4    189     -0.8477E+05
    213      1      2    190     -0.3974E+05
    214      1      5    190      -7379.    
    215      1     46    190      -151.0    
    216      1    177    192      -2942.    
    217      1     26    193     -0.4683E+05
    218      1    115    193       0.000    
    219      1    106    193     -0.2210E+05
    220      1    106    193     -0.4306E+05
    221      1    102    193       0.000    
    222      1     32    194     -0.6810E+05
    223      1    178    194       0.000    
    224      1     98    195      -81.00    
    225      1     45    196       0.000    
    226      1     29    197       0.000    
    227      1     37    198     -0.5126E+05
    228      1    143    198       0.000    
    229      1    116    199      -478.0    
    230      1     32    200       0.000    
    231      1    174    200      -3638.    
    232      1    170    200       0.000    
    233      1    170    200       0.000    
    234      1    170    200     -0.3385E+05
    235      1    170    200     -0.3385E+05
    236      1     32    200     -0.1252E+05
    237      1     94    201       0.000    
    238      1     95    201       0.000    
    239      1     95    201      -133.0    
    240      1    152    201       0.000    
    241      1    152    201       0.000    
    242      1     99    203       0.000    
    243      1     77    203       0.000    
    244      1    173    203       0.000    
    245      1    173    203       0.000    
    246      1    173    203       0.000    
    247      1    173    203       0.000    
    248      1    136    204      -567.0    
    249      1    124    204     -0.1134E+05
    250      1     32    204     -0.3540E+05
    251      1    173    204       0.000    
    252      1    137    205       0.000    
    253      1     33    205     -0.2674E+05
    254      1     71    205     -0.2746E+05
    255      1    150    205      -241.0    
    256      1     69    206      -3880.    
    257      1     69    206      -1940.    
    258      1     72    206      -51.00    
    259      1    114    206       0.000    
    260      1    173    206       0.000    
    261      1    173    206       0.000    
    262      1    173    206       0.000    
    263      1    104    207      -160.0    
    264      1     94    209       0.000    
    265      1    169    209       0.000    
    266      1    153    209      -738.0    
    267      1    103    209       0.000    
    268      1    103    209       0.000    
    269      1    103    209       0.000    
    270      1    140    210     -0.2132E+05
    271      1     98    210       0.000    
    272      1    101    210       0.000    
    273      1    102    210       0.000    
    274      1    102    210       0.000    
    275      1     96    211       0.000    
    276      1     97    211       0.000    
    277      1     81    211      -4763.    
    278      1     82    211      -3468.    
    279      1     99    211       0.000    
    280      1     86    212       0.000    
    281      1     86    212       0.000    
    282      1    101    214       0.000    
    283      1    127    214      -148.0    
    284      1    127    214      -458.0    
    285      1    104    214       0.000    
    286      1    101    216       0.000    
    287      1    101    216       0.000    
    288      1     76    216     -0.1357E+05
    289      1     76    216     -0.1213E+05
    290      1     77    216       0.000    
    291      1     78    216       0.000    
    292      1     78    216       0.000    
    293      1    195    217       0.000    
    294      1    105    218       0.000    
    295      1    105    218       0.000    
    296      1    125    219       0.000    
    297      1    152    219     -0.3096E+05
    298      1    152    219      -364.0    
    299      1    111    221      -5916.    
    300      1    111    221      -5916.    
    301      1    182    221       0.000    
    302      1    166    222      -1.000    
    303      1    169    222      -3791.    
    304      1    170    222       0.000    
    305      1    170    222       0.000    
    306      1    170    222       0.000    
    307      1     76    222       0.000    
    308      1     74    223       0.000    
    309      1    171    223       0.000    
    310      1    149    224       0.000    
    311      1    115    224      -89.00    
    312      1    185    224       0.000    
    313      1    170    224       0.000    
    314      1    165    225      -177.0    
    315      1    165    225     -0.2087E+05
    316      1    103    225     -0.1004E+05
    317      1     79    225       0.000    
    318      1     97    118       0.000    

    318 WELLS
 
 SOLVING FOR HEAD 

 MAXIMUM HEAD CHANGE FOR EACH ITERATION (1 INDICATES THE FIRST INNER ITERATION):

    HEAD CHANGE    HEAD CHANGE    HEAD CHANGE    HEAD CHANGE    HEAD CHANGE 
   LAYER,ROW,COL  LAYER,ROW,COL  LAYER,ROW,COL  LAYER,ROW,COL  LAYER,ROW,COL
 ---------------------------------------------------------------------------
  1  -2772.      0  -1818.      0  -1166.      0  -1744.      0  -2831.    
   (  1,106,118)  (  1,106,119)  (  1,104,120)  (  1,  1,154)  (  1,  7,152)
  0  -4227.      0  -6582.      0  -8146.      0  -7135.      0  -6800.    
   (  1,  9,182)  (  1,  1,182)  (  1,  1,188)  (  1,  3,201)  (  1,  4,225)
  0  -5543.      0  -5424.      0  -6320.      0  -6747.      0  -7104.    
   (  1,  3,225)  (  1, 55,216)  (  1, 50,217)  (  1, 54,225)  (  1, 51,225)
  0  -7986.      0  -9452.      0 -0.1138E+05  0 -0.1297E+05  0 -0.1646E+05
   (  1, 43,225)  (  1, 34,225)  (  1,  1,212)  (  1,  1,214)  (  1, 10,199)
  0 -0.2051E+05  0 -0.2880E+05  0 -0.3974E+05  0 -0.5184E+05  0 -0.6361E+05
   (  1,142,222)  (  1,  1,223)  (  1,150,211)  (  1,190,224)  (  1,200,225)
  0 -0.8002E+05  0 -0.1137E+06  0 -0.1677E+06  0 -0.2336E+06  0 -0.2974E+06
   (  1,204,216)  (  1,205,223)  (  1,205,213)  (  1,200,225)  (  1,198,225)
  1   5238.      0   9493.      0  0.1309E+05  0  0.1646E+05  0  0.1828E+05
   (  1, 12,  5)  (  1,198,225)  (  1,205,211)  (  1,205,223)  (  1,204,217)
  0  0.1867E+05  0  0.1820E+05  0  0.1570E+05  0  0.1254E+05  0  0.1004E+05
   (  1,197,225)  (  1,192,224)  (  1,199,211)  (  1,200,204)  (  1,196,214)
  0  -8396.      0  -6868.      0  -6048.      0  -5433.      0  -5157.    
   (  1,205, 34)  (  1,164, 19)  (  1,168, 18)  (  1,205,  2)  (  1,195,  2)
  0  -4851.      0  -4094.      0  -3617.      0  -3258.      0  -3400.    
   (  1,184,  2)  (  1,191,  1)  (  1,182,  4)  (  1,  9,  2)  (  1,  5,  2)
  0  -4208.      0  -5002.      0  -5562.      0  -4693.      0  -3525.    
   (  1, 63,  7)  (  1, 55,  8)  (  1, 85,  9)  (  1, 85,  1)  (  1, 79,  3)
  0  -2587.      0  -1963.      0  -1802.      0  -2077.      0  -2393.    
   (  1, 54,  9)  (  1, 41,  5)  (  1, 27,  1)  (  1, 16,  2)  (  1,  1,  4)
  1  -1498.      0  -1547.      0  -1064.      0  -1239.      0  -1815.    
   (  1,106,118)  (  1,106,119)  (  1,102,120)  (  1,  6,161)  (  1, 16,172)
  0  -2488.      0  -3349.      0  -4103.      0  -4642.      0  -5758.    
   (  1,  3,171)  (  1,  1,181)  (  1,  1,183)  (  1,108,137)  (  1,  1,225)
  0  -6206.      0  -7523.      0  -9302.      0 -0.1159E+05  0 -0.1368E+05
   (  1,  2,219)  (  1, 13,215)  (  1, 54,209)  (  1, 53,224)  (  1, 51,224)
  0 -0.1595E+05  0 -0.1782E+05  0 -0.1865E+05  0 -0.1870E+05  0 -0.1951E+05
   (  1, 95,224)  (  1, 91,225)  (  1, 89,225)  (  1,112,214)  (  1, 93,222)
  0 -0.2091E+05  0 -0.2374E+05  0 -0.2785E+05  0 -0.3528E+05  0 -0.4532E+05
   (  1,197,214)  (  1,205,209)  (  1,195,220)  (  1,191,225)  (  1,197,225)
  0 -0.6017E+05  0 -0.8232E+05  0 -0.1092E+06  0 -0.1402E+06  0 -0.1738E+06
   (  1,204,217)  (  1,205,222)  (  1,  6,  2)  (  1,  3,  6)  (  1, 10,  3)
  1  -4664.      0   7202.      0   8675.      0  0.1012E+05  0   9796.    
   (  1,  6,131)  (  1, 20,223)  (  1,204,224)  (  1,205,223)  (  1,204,217)
  0   8750.      0   8085.      0   7412.      0   7200.      0   7339.    
   (  1,196,224)  (  1,197,216)  (  1,180,224)  (  1,200,204)  (  1,196,214)
  0   6930.      0   6188.      0   5943.      0  -6303.      0  -6476.    
   (  1,188,215)  (  1,112,214)  (  1,116,211)  (  1,201,  1)  (  1,191,  2)
  0  -6028.      0  -5163.      0  -4214.      0  -3566.      0  -3165.    
   (  1,183,  2)  (  1,191,  1)  (  1,  1, 14)  (  1, 19,  1)  (  1,  9,  7)
  0  -3322.      0  -3558.      0  -3636.      0  -3177.      0  -2732.    
   (  1, 61,  3)  (  1,108,  1)  (  1, 85,  9)  (  1, 72,  4)  (  1, 81,  3)
  0  -2293.      0  -1883.      0  -1677.      0  -1760.      0  -1832.    
   (  1, 71,  5)  (  1, 64,  8)  (  1, 50,  4)  (  1, 42,  5)  (  1, 27,  1)
  1  -1368.      0  -1490.      0  -1067.      0  -1196.      0  -1598.    
   (  1,106,118)  (  1,106,119)  (  1,102,120)  (  1,  7,162)  (  1,205,222)
  0  -2140.      0  -2665.      0  -3157.      0  -3766.      0  -4727.    
   (  1, 82,140)  (  1, 83,134)  (  1, 80,113)  (  1,109,137)  (  1,  3,126)
  0  -5510.      0  -6378.      0  -8054.      0 -0.1077E+05  0 -0.1416E+05
   (  1,  1,124)  (  1,  1,130)  (  1,136,212)  (  1,139,223)  (  1,127,221)
  0 -0.1756E+05  0 -0.2067E+05  0 -0.2253E+05  0 -0.2339E+05  0 -0.2411E+05
   (  1, 95,224)  (  1, 91,225)  (  1, 89,225)  (  1,111,213)  (  1, 75,225)
  0 -0.2398E+05  0 -0.2474E+05  0 -0.2732E+05  0 -0.3206E+05  0 -0.4015E+05
   (  1,201,219)  (  1,  5,220)  (  1,  1,224)  (  1,  2,215)  (  1, 19,223)
  0 -0.5286E+05  0 -0.7044E+05  0 -0.8932E+05  0 -0.1055E+06  0 -0.1270E+06
   (  1, 31,222)  (  1, 31,224)  (  1, 29,225)  (  1, 22,225)  (  1, 21,224)
  1   4172.      0   7766.      0   9689.      0   9430.      0   8069.    
   (  1, 20,223)  (  1, 22,225)  (  1, 29,225)  (  1, 31,224)  (  1, 31,222)
  0   6819.      0   6162.      0  -6604.      0   6279.      0   6231.    
   (  1, 19,223)  (  1,  9,218)  (  1,  6, 82)  (  1,  5,220)  (  1,  5,188)
  0   6621.      0  -7694.      0  -8552.      0  -8303.      0  -7825.    
   (  1, 74,225)  (  1,  6,  4)  (  1,  2,  9)  (  1,  2, 18)  (  1, 21,  3)
  0  -6760.      0  -5513.      0  -4152.      0  -3274.      0  -2898.    
   (  1, 11,  5)  (  1,  7,  9)  (  1,  1, 16)  (  1,  4, 31)  (  1,150,  3)
  0  -3017.      0  -3054.      0  -3065.      0  -2671.      0  -2241.    
   (  1,140,  4)  (  1,108,  3)  (  1,112,  1)  (  1,105,  6)  (  1,118,  3)
  0  -1904.      0  -1564.      0  -1478.      0  -1563.      0  -1621.    
   (  1,142,  2)  (  1,174,  5)  (  1,180,  2)  (  1,177,  7)  (  1,169, 10)
  1  -1219.      0  -1424.      0  -1025.      0  -1191.      0  -1554.    
   (  1,106,118)  (  1,106,119)  (  1,102,120)  (  1,  8,164)  (  1,  9,159)
  0  -2060.      0  -2565.      0  -3048.      0  -3585.      0  -4595.    
   (  1, 82,140)  (  1, 83,134)  (  1, 79,113)  (  1,107,136)  (  1,  3,126)
  0  -5355.      0  -6382.      0  -7907.      0 -0.1065E+05  0 -0.1425E+05
   (  1,  1,124)  (  1,  1,130)  (  1, 50,203)  (  1, 46,210)  (  1,128,221)
  0 -0.1797E+05  0 -0.2134E+05  0 -0.2338E+05  0 -0.2446E+05  0 -0.2508E+05
   (  1, 95,224)  (  1, 91,225)  (  1, 89,225)  (  1,111,213)  (  1,194,221)
  0 -0.2515E+05  0 -0.2538E+05  0 -0.2717E+05  0 -0.3222E+05  0 -0.3950E+05
   (  1,201,219)  (  1,205,217)  (  1,193,217)  (  1,191,225)  (  1,195,224)
  0 -0.5087E+05  0 -0.6719E+05  0 -0.8608E+05  0 -0.1001E+06  0 -0.1176E+06
   (  1,197,221)  (  1, 32,224)  (  1, 29,225)  (  1, 22,225)  (  1, 20,223)
  1   3962.      0   7465.      0   9474.      0   8937.      0   7559.    
   (  1, 20,223)  (  1, 22,225)  (  1, 29,225)  (  1, 31,224)  (  1, 31,222)
  0   7084.      0   6647.      0   6276.      0   6265.      0   6637.    
   (  1,195,224)  (  1,191,225)  (  1,180,224)  (  1,205,217)  (  1,201,219)
  0   6317.      0  -6766.      0  -7590.      0  -7466.      0  -7183.    
   (  1,197,222)  (  1,  6,  4)  (  1,  2,  9)  (  1,  2, 18)  (  1, 19,  1)
  0  -6274.      0  -5147.      0  -4117.      0  -3267.      0  -2846.    
   (  1, 10,  5)  (  1,  8, 10)  (  1, 10, 28)  (  1,  4, 31)  (  1,149,  3)
  0  -2885.      0  -2927.      0  -2945.      0  -2580.      0  -2195.    
   (  1,139,  3)  (  1,108,  1)  (  1,111,  1)  (  1,105,  6)  (  1, 83,  3)
  0  -1836.      0  -1502.      0  -1345.      0  -1323.      0  -1346.    
   (  1, 83, 17)  (  1, 65,  8)  (  1, 74,  7)  (  1, 81, 25)  (  1, 59, 14)
  1  -1109.      0  -1379.      0  -990.1      0  -1203.      0  -1544.    
   (  1,106,118)  (  1,106,118)  (  1,102,120)  (  1,202,225)  (  1,205,220)
  0  -2022.      0  -2555.      0  -3063.      0  -3552.      0  -4580.    
   (  1, 82,140)  (  1, 84,134)  (  1, 79,113)  (  1, 76,114)  (  1,  3,126)
  0  -5315.      0  -6387.      0  -7826.      0 -0.1068E+05  0 -0.1432E+05
   (  1,  1,124)  (  1,  1,130)  (  1, 50,203)  (  1,139,223)  (  1,128,221)
  0 -0.1799E+05  0 -0.2129E+05  0 -0.2325E+05  0 -0.2441E+05  0 -0.2493E+05
   (  1, 95,224)  (  1, 91,225)  (  1, 89,225)  (  1,111,213)  (  1,201,221)
  0 -0.2509E+05  0 -0.2540E+05  0 -0.2729E+05  0 -0.3226E+05  0 -0.3951E+05
   (  1,201,219)  (  1,205,217)  (  1,192,216)  (  1,191,225)  (  1,195,224)
  0 -0.5075E+05  0 -0.6743E+05  0 -0.8712E+05  0 -0.1001E+06  0 -0.1151E+06
   (  1,196,220)  (  1, 32,224)  (  1, 29,225)  (  1, 22,225)  (  1, 20,223)
  1   4025.      0   7533.      0   9698.      0   9030.      0   7677.    
   (  1, 21,223)  (  1, 22,225)  (  1, 29,225)  (  1, 34,218)  (  1, 31,222)
  0   7192.      0   6701.      0   6329.      0   6299.      0   6533.    
   (  1,195,224)  (  1,191,225)  (  1,192,216)  (  1,205,217)  (  1,201,219)
  0   6246.      0  -6868.      0  -7599.      0  -7471.      0  -7177.    
   (  1,199,220)  (  1,  6,  4)  (  1,  2,  9)  (  1,  1, 16)  (  1, 18,  1)
  0  -6250.      0  -5057.      0  -4144.      0  -3223.      0  -2887.    
   (  1, 10,  5)  (  1,  8, 10)  (  1, 10, 28)  (  1,  4, 31)  (  1,149,  3)
  0  -2911.      0  -2943.      0  -2965.      0  -2581.      0  -2208.    
   (  1,139,  3)  (  1,114,  1)  (  1,108,  1)  (  1,104,  6)  (  1, 84,  3)
  0  -1836.      0  -1507.      0  -1339.      0  -1308.      0  -1311.    
   (  1, 82, 16)  (  1, 65,  8)  (  1, 74,  7)  (  1, 53, 16)  (  1, 59, 14)
  1  -1038.      0  -1343.      0  -965.3      0  -1217.      0  -1551.    
   (  1,106,118)  (  1,106,118)  (  1,102,120)  (  1,202,225)  (  1,205,220)
  0  -1991.      0  -2546.      0  -3066.      0  -3544.      0  -4543.    
   (  1, 82,140)  (  1, 84,134)  (  1, 78,112)  (  1, 75,114)  (  1,  3,126)
  0  -5269.      0  -6371.      0  -7787.      0 -0.1070E+05  0 -0.1436E+05
   (  1,  1,124)  (  1,  1,130)  (  1,136,212)  (  1,139,223)  (  1,128,221)
  0 -0.1800E+05  0 -0.2125E+05  0 -0.2318E+05  0 -0.2435E+05  0 -0.2495E+05
   (  1, 95,224)  (  1, 91,225)  (  1, 89,225)  (  1,111,213)  (  1,201,221)
  0 -0.2503E+05  0 -0.2548E+05  0 -0.2743E+05  0 -0.3233E+05  0 -0.3959E+05
   (  1,201,219)  (  1,199,212)  (  1,192,216)  (  1,191,225)  (  1,195,224)
  0 -0.5081E+05  0 -0.6764E+05  0 -0.8757E+05  0 -0.9995E+05  0 -0.1138E+06
   (  1,200,223)  (  1, 33,218)  (  1, 29,225)  (  1, 22,225)  (  1, 22,224)
  1   4111.      0   7578.      0   9839.      0   9142.      0   7786.    
   (  1, 21,223)  (  1, 22,225)  (  1, 29,225)  (  1, 34,218)  (  1,200,223)
  0   7272.      0   6733.      0   6386.      0   6306.      0   6444.    
   (  1,195,224)  (  1,191,225)  (  1,192,216)  (  1,204,216)  (  1,201,219)
  0   6246.      0  -6833.      0  -7533.      0  -7444.      0  -7155.    
   (  1,199,220)  (  1,  6,  4)  (  1,  2,  8)  (  1,  1, 15)  (  1, 18,  1)
  0  -6250.      0  -5050.      0  -4170.      0  -3219.      0  -2893.    
   (  1, 10,  5)  (  1,  3,  7)  (  1, 10, 28)  (  1, 23,  5)  (  1,149,  3)
  0  -2907.      0  -2962.      0  -2968.      0  -2584.      0  -2224.    
   (  1,139,  3)  (  1,114,  1)  (  1,107,  2)  (  1, 95,  8)  (  1, 84,  3)
  0  -1845.      0  -1515.      0  -1340.      0  -1316.      0  -1296.    
   (  1, 82, 16)  (  1, 65,  8)  (  1, 74,  7)  (  1, 53, 16)  (  1, 59, 14)
  1  -990.0      0  -1310.      0  -963.3      0  -1231.      0  -1565.    
   (  1,106,118)  (  1,106,118)  (  1,  5,168)  (  1,202,225)  (  1,205,222)
  0  -1970.      0  -2537.      0  -3070.      0  -3541.      0  -4515.    
   (  1, 83,142)  (  1, 84,134)  (  1, 78,112)  (  1, 75,114)  (  1,  3,126)
  0  -5238.      0  -6350.      0  -7772.      0 -0.1071E+05  0 -0.1438E+05
   (  1,  3,126)  (  1,  1,130)  (  1,136,212)  (  1,139,223)  (  1,129,222)
  0 -0.1802E+05  0 -0.2127E+05  0 -0.2314E+05  0 -0.2431E+05  0 -0.2491E+05
   (  1, 94,224)  (  1, 93,215)  (  1, 89,225)  (  1,111,213)  (  1,201,221)
  0 -0.2495E+05  0 -0.2552E+05  0 -0.2751E+05  0 -0.3239E+05  0 -0.3968E+05
   (  1,201,219)  (  1,199,212)  (  1,192,216)  (  1,191,225)  (  1,195,224)
  0 -0.5095E+05  0 -0.6782E+05  0 -0.8773E+05  0 -0.9979E+05  0 -0.1130E+06
   (  1,200,223)  (  1, 33,218)  (  1, 29,225)  (  1, 22,225)  (  1, 22,224)
  1   4157.      0   7611.      0   9928.      0   9217.      0   7910.    
   (  1, 21,223)  (  1, 22,225)  (  1, 29,225)  (  1, 34,218)  (  1,200,223)
  0   7343.      0   6765.      0   6431.      0   6329.      0   6372.    
   (  1,195,224)  (  1,191,225)  (  1,192,216)  (  1,199,212)  (  1,201,219)
  0   6241.      0  -6801.      0  -7495.      0  -7441.      0  -7138.    
   (  1,199,219)  (  1,  6,  4)  (  1,  2,  8)  (  1,  1, 15)  (  1, 18,  1)
  0  -6261.      0  -5058.      0  -4179.      0  -3228.      0  -2892.    
   (  1, 10,  5)  (  1,  3,  7)  (  1, 10, 28)  (  1, 24,  6)  (  1,149,  3)
  0  -2901.      0  -2973.      0  -2975.      0  -2593.      0  -2231.    
   (  1,139,  3)  (  1,114,  1)  (  1,102,  6)  (  1, 95,  8)  (  1, 84,  3)
  0  -1854.      0  -1519.      0  -1339.      0  -1319.      0  -1286.    
   (  1, 76, 10)  (  1, 65,  8)  (  1, 74,  7)  (  1, 53, 16)  (  1, 59, 14)
  1  -954.4      0  -1282.      0  -962.2      0  -1241.      0  -1573.    
   (  1,106,118)  (  1,106,118)  (  1,  5,168)  (  1,202,225)  (  1,205,222)
  0  -1956.      0  -2528.      0  -3070.      0  -3542.      0  -4483.    
   (  1, 83,142)  (  1, 84,134)  (  1, 78,112)  (  1, 80,111)  (  1,  3,126)
  0  -5213.      0  -6328.      0  -7764.      0 -0.1073E+05  0 -0.1438E+05
   (  1,  3,126)  (  1,  1,130)  (  1,136,212)  (  1,139,223)  (  1,129,222)
  0 -0.1804E+05  0 -0.2129E+05  0 -0.2312E+05  0 -0.2428E+05  0 -0.2488E+05
   (  1, 94,224)  (  1, 93,215)  (  1, 90,225)  (  1,112,213)  (  1,201,221)
  0 -0.2487E+05  0 -0.2553E+05  0 -0.2755E+05  0 -0.3242E+05  0 -0.3975E+05
   (  1,201,219)  (  1,199,212)  (  1,192,216)  (  1,190,225)  (  1,195,224)
  0 -0.5109E+05  0 -0.6798E+05  0 -0.8781E+05  0 -0.9966E+05  0 -0.1124E+06
   (  1,200,223)  (  1, 33,217)  (  1, 29,225)  (  1, 22,225)  (  1, 22,224)
  1   4167.      0   7638.      0   9984.      0   9273.      0   8013.    
   (  1, 21,223)  (  1, 22,225)  (  1, 29,225)  (  1, 34,218)  (  1,204,223)
  0   7393.      0   6785.      0   6455.      0   6339.      0   6306.    
   (  1,195,224)  (  1,191,225)  (  1,192,216)  (  1,199,212)  (  1,201,219)
  0   6228.      0  -6768.      0  -7465.      0  -7444.      0  -7123.    
   (  1,199,219)  (  1,  6,  4)  (  1,  2,  8)  (  1,  1, 15)  (  1, 18,  1)
  0  -6274.      0  -5070.      0  -4181.      0  -3234.      0  -2886.    
   (  1, 10,  5)  (  1,  3,  7)  (  1, 10, 29)  (  1, 24,  6)  (  1,149,  3)
  0  -2891.      0  -2975.      0  -2984.      0  -2597.      0  -2231.    
   (  1,139,  3)  (  1,114,  1)  (  1,102,  6)  (  1, 95,  8)  (  1, 84,  3)
  0  -1862.      0  -1521.      0  -1338.      0  -1320.      0  -1279.    
   (  1, 76, 10)  (  1, 65,  8)  (  1, 74,  7)  (  1, 53, 16)  (  1, 59, 14)
  1  -926.6      0  -1256.      0  -960.2      0  -1249.      0  -1580.    
   (  1,106,118)  (  1,106,118)  (  1,  5,168)  (  1,202,225)  (  1,205,222)
  0  -1945.      0  -2519.      0  -3069.      0  -3544.      0  -4453.    
   (  1, 83,142)  (  1, 84,134)  (  1, 78,112)  (  1, 80,111)  (  1,  3,126)
  0  -5191.      0  -6309.      0  -7759.      0 -0.1074E+05  0 -0.1438E+05
   (  1,  3,126)  (  1,  1,130)  (  1,136,212)  (  1,139,223)  (  1,129,222)
  0 -0.1804E+05  0 -0.2129E+05  0 -0.2310E+05  0 -0.2427E+05  0 -0.2486E+05
   (  1, 94,224)  (  1, 93,215)  (  1, 90,225)  (  1,112,213)  (  1,201,221)
  0 -0.2483E+05  0 -0.2554E+05  0 -0.2756E+05  0 -0.3245E+05  0 -0.3979E+05
   (  1,192,212)  (  1,199,212)  (  1,192,216)  (  1,190,225)  (  1,195,224)
  0 -0.5118E+05  0 -0.6813E+05  0 -0.8786E+05  0 -0.9959E+05  0 -0.1119E+06
   (  1,200,223)  (  1, 34,218)  (  1, 29,225)  (  1, 22,225)  (  1, 22,224)
  1   4156.      0   7659.      0  0.1001E+05  0   9312.      0   8105.    
   (  1, 21,223)  (  1, 22,225)  (  1, 29,225)  (  1, 34,218)  (  1,204,223)
  0   7431.      0   6802.      0   6471.      0   6343.      0   6248.    
   (  1,195,224)  (  1,191,225)  (  1,192,216)  (  1,198,210)  (  1,201,219)
  0   6211.      0  -6742.      0  -7442.      0  -7450.      0  -7110.    
   (  1,199,219)  (  1,  6,  4)  (  1,  2,  8)  (  1,  1, 15)  (  1, 18,  1)
  0  -6291.      0  -5086.      0  -4180.      0  -3239.      0  -2878.    
   (  1,  9,  5)  (  1,  2,  7)  (  1, 10, 29)  (  1, 24,  6)  (  1,149,  3)
  0  -2882.      0  -2973.      0  -2988.      0  -2598.      0  -2230.    
   (  1,139,  3)  (  1,114,  1)  (  1,102,  6)  (  1, 95,  8)  (  1, 84,  3)
  0  -1865.      0  -1522.      0  -1336.      0  -1320.      0  -1274.    
   (  1, 76, 10)  (  1, 65,  8)  (  1, 74,  7)  (  1, 53, 16)  (  1, 59, 14)
  1  -903.7      0  -1233.      0  -957.7      0  -1256.      0  -1585.    
   (  1,106,118)  (  1,106,118)  (  1,  5,168)  (  1,202,225)  (  1,205,223)
  0  -1937.      0  -2510.      0  -3066.      0  -3545.      0  -4425.    
   (  1, 83,142)  (  1, 84,134)  (  1, 78,112)  (  1, 80,111)  (  1,  3,126)
  0  -5171.      0  -6294.      0  -7756.      0 -0.1075E+05  0 -0.1438E+05
   (  1,  3,126)  (  1,  1,130)  (  1,136,212)  (  1,139,223)  (  1,129,222)
  0 -0.1805E+05  0 -0.2129E+05  0 -0.2308E+05  0 -0.2426E+05  0 -0.2484E+05
   (  1, 94,224)  (  1, 93,215)  (  1, 90,225)  (  1,112,213)  (  1,201,221)
  0 -0.2480E+05  0 -0.2554E+05  0 -0.2755E+05  0 -0.3246E+05  0 -0.3980E+05
   (  1,192,212)  (  1,198,210)  (  1,192,216)  (  1,190,225)  (  1,195,224)
  0 -0.5126E+05  0 -0.6826E+05  0 -0.8791E+05  0 -0.9955E+05  0 -0.1115E+06
   (  1,201,223)  (  1, 34,218)  (  1, 29,225)  (  1, 22,225)  (  1, 22,224)
  1   4131.      0   7676.      0  0.1003E+05  0   9340.      0   8184.    
   (  1, 21,223)  (  1, 22,225)  (  1, 29,225)  (  1, 34,218)  (  1,204,223)
  0   7461.      0   6822.      0   6480.      0   6351.      0   6212.    
   (  1,195,224)  (  1,190,225)  (  1,192,216)  (  1,198,210)  (  1,192,212)
  0   6192.      0  -6719.      0  -7424.      0  -7458.      0  -7098.    
   (  1,199,219)  (  1,  6,  4)  (  1,  2,  8)  (  1,  1, 15)  (  1, 18,  1)
  0  -6305.      0  -5099.      0  -4179.      0  -3243.      0  -2869.    
   (  1,  9,  5)  (  1,  2,  7)  (  1, 10, 29)  (  1, 24,  6)  (  1,149,  3)
  0  -2872.      0  -2968.      0  -2990.      0  -2599.      0  -2228.    
   (  1,139,  3)  (  1,114,  1)  (  1,102,  6)  (  1, 95,  8)  (  1, 84,  3)
  0  -1867.      0  -1523.      0  -1334.      0  -1320.      0  -1271.    
   (  1, 76, 10)  (  1, 65,  8)  (  1, 74,  7)  (  1, 53, 16)  (  1, 59, 14)
  1  -884.3      0  -1213.      0  -954.8      0  -1262.      0  -1589.    
   (  1,106,118)  (  1,106,118)  (  1,  5,168)  (  1,202,225)  (  1,205,223)
  0  -1931.      0  -2502.      0  -3064.      0  -3544.      0  -4398.    
   (  1, 83,142)  (  1, 84,134)  (  1, 78,112)  (  1, 80,111)  (  1,  3,126)
  0  -5151.      0  -6281.      0  -7754.      0 -0.1077E+05  0 -0.1438E+05
   (  1,  3,126)  (  1,  1,130)  (  1,136,212)  (  1,139,223)  (  1,129,222)
  0 -0.1805E+05  0 -0.2129E+05  0 -0.2307E+05  0 -0.2425E+05  0 -0.2482E+05
   (  1, 94,224)  (  1, 93,215)  (  1, 90,225)  (  1,112,213)  (  1,201,221)
  0 -0.2478E+05  0 -0.2555E+05  0 -0.2754E+05  0 -0.3248E+05  0 -0.3982E+05
   (  1,191,212)  (  1,197,207)  (  1,192,216)  (  1,190,225)  (  1,195,224)
  0 -0.5132E+05  0 -0.6837E+05  0 -0.8796E+05  0 -0.9952E+05  0 -0.1111E+06
   (  1,201,223)  (  1, 34,218)  (  1, 29,225)  (  1, 22,225)  (  1, 22,224)
  1   4098.      0   7692.      0  0.1003E+05  0   9359.      0   8254.    
   (  1, 21,223)  (  1, 22,225)  (  1, 29,225)  (  1, 34,218)  (  1,204,223)
  0   7484.      0   6840.      0   6486.      0   6355.      0   6189.    
   (  1,195,224)  (  1,190,225)  (  1,192,216)  (  1,198,210)  (  1,200,207)
  0   6171.      0  -6698.      0  -7408.      0  -7466.      0  -7087.    
   (  1,199,219)  (  1,  6,  4)  (  1,  2,  8)  (  1,  1, 15)  (  1, 18,  1)
  0  -6316.      0  -5108.      0  -4179.      0  -3246.      0  -2858.    
   (  1,  9,  5)  (  1,  2,  7)  (  1, 11, 29)  (  1, 24,  6)  (  1,149,  3)
  0  -2863.      0  -2963.      0  -2991.      0  -2600.      0  -2227.    
   (  1,139,  3)  (  1,110,  1)  (  1,102,  6)  (  1, 95,  8)  (  1, 83,  3)
  0  -1866.      0  -1523.      0  -1332.      0  -1320.      0  -1268.    
   (  1, 76, 10)  (  1, 65,  8)  (  1, 74,  7)  (  1, 53, 16)  (  1, 59, 14)
  1  -867.2      0  -1194.      0  -951.8      0  -1266.      0  -1592.    
   (  1,106,118)  (  1,106,118)  (  1,  5,168)  (  1,202,225)  (  1,205,223)
  0  -1927.      0  -2495.      0  -3061.      0  -3544.      0  -4374.    
   (  1, 83,142)  (  1, 84,134)  (  1, 78,112)  (  1, 80,111)  (  1,  3,126)
  0  -5133.      0  -6269.      0  -7752.      0 -0.1078E+05  0 -0.1437E+05
   (  1,  3,126)  (  1,  1,130)  (  1,136,212)  (  1,139,223)  (  1,129,222)
  0 -0.1806E+05  0 -0.2129E+05  0 -0.2305E+05  0 -0.2424E+05  0 -0.2479E+05
   (  1, 94,224)  (  1, 93,215)  (  1,103,219)  (  1,112,213)  (  1,201,221)
  0 -0.2475E+05  0 -0.2557E+05  0 -0.2753E+05  0 -0.3249E+05  0 -0.3982E+05
   (  1,191,212)  (  1,197,207)  (  1,192,216)  (  1,189,225)  (  1,195,224)
  0 -0.5137E+05  0 -0.6847E+05  0 -0.8799E+05  0 -0.9951E+05  0 -0.1109E+06
   (  1,201,223)  (  1, 34,218)  (  1, 29,225)  (  1, 22,225)  (  1, 22,224)
  1   4060.      0   7706.      0  0.1003E+05  0   9372.      0   8317.    
   (  1, 21,223)  (  1, 22,225)  (  1, 29,225)  (  1, 34,218)  (  1,204,223)
  0   7503.      0   6857.      0   6489.      0   6356.      0   6184.    
   (  1,195,224)  (  1,190,225)  (  1,192,216)  (  1,198,210)  (  1,200,207)
  0   6151.      0  -6678.      0  -7395.      0  -7474.      0  -7076.    
   (  1,198,219)  (  1,  6,  4)  (  1,  2,  9)  (  1,  1, 15)  (  1, 18,  1)
  0  -6324.      0  -5114.      0  -4181.      0  -3249.      0  -2847.    
   (  1,  9,  5)  (  1,  2,  7)  (  1, 11, 29)  (  1, 24,  6)  (  1,149,  3)
  0  -2855.      0  -2962.      0  -2991.      0  -2601.      0  -2227.    
   (  1,139,  3)  (  1,110,  1)  (  1,102,  6)  (  1, 95,  8)  (  1, 83,  3)
  0  -1865.      0  -1523.      0  -1332.      0  -1319.      0  -1266.    
   (  1, 74,  9)  (  1, 65,  8)  (  1, 75,  8)  (  1, 53, 16)  (  1, 59, 14)
  1  -851.7      0  -1177.      0  -957.4      0  -1269.      0  -1593.    
   (  1,106,118)  (  1,106,118)  (  1,205,219)  (  1,202,225)  (  1,205,223)
  0  -1923.      0  -2489.      0  -3058.      0  -3544.      0  -4352.    
   (  1, 83,142)  (  1, 84,134)  (  1, 78,112)  (  1, 80,111)  (  1,  3,126)
  0  -5115.      0  -6258.      0  -7750.      0 -0.1079E+05  0 -0.1436E+05
   (  1,  3,126)  (  1,  1,130)  (  1,136,212)  (  1,139,223)  (  1,129,222)
  0 -0.1806E+05  0 -0.2129E+05  0 -0.2304E+05  0 -0.2423E+05  0 -0.2476E+05
   (  1, 94,224)  (  1, 93,215)  (  1,103,219)  (  1,112,213)  (  1,201,221)
  0 -0.2474E+05  0 -0.2558E+05  0 -0.2752E+05  0 -0.3250E+05  0 -0.3983E+05
   (  1,200,207)  (  1,195,206)  (  1,192,216)  (  1,189,225)  (  1,195,224)
  0 -0.5142E+05  0 -0.6856E+05  0 -0.8803E+05  0 -0.9950E+05  0 -0.1106E+06
   (  1,201,223)  (  1, 34,218)  (  1, 29,225)  (  1, 22,225)  (  1, 22,224)
  1   4020.      0   7719.      0  0.1002E+05  0   9380.      0   8375.    
   (  1, 21,223)  (  1, 22,225)  (  1, 29,225)  (  1, 34,218)  (  1,204,223)
  0   7520.      0   6873.      0   6490.      0   6355.      0   6176.    
   (  1,195,224)  (  1,190,225)  (  1,192,216)  (  1,198,210)  (  1,200,207)
  0   6133.      0  -6660.      0  -7386.      0  -7481.      0  -7066.    
   (  1,198,219)  (  1,  6,  4)  (  1,  2,  9)  (  1,  1, 15)  (  1, 18,  1)
  0  -6331.      0  -5118.      0  -4182.      0  -3251.      0  -2836.    
   (  1,  9,  5)  (  1,  2,  7)  (  1, 11, 29)  (  1, 24,  6)  (  1,149,  3)
  0  -2847.      0  -2960.      0  -2990.      0  -2602.      0  -2227.    
   (  1,139,  3)  (  1,110,  1)  (  1,102,  6)  (  1, 95,  8)  (  1, 83,  3)
  0  -1865.      0  -1523.      0  -1332.      0  -1319.      0  -1264.    
   (  1, 74,  9)  (  1, 65,  8)  (  1, 75,  8)  (  1, 53, 16)  (  1, 59, 14)
  1  -837.5      0  -1162.      0  -962.1      0  -1270.      0  -1592.    
   (  1,106,118)  (  1,106,118)  (  1,205,219)  (  1,202,225)  (  1,205,223)
  0  -1920.      0  -2483.      0  -3055.      0  -3544.      0  -4331.    
   (  1, 83,142)  (  1, 84,134)  (  1, 78,112)  (  1, 80,111)  (  1,  3,126)
  0  -5098.      0  -6248.      0  -7748.      0 -0.1080E+05  0 -0.1436E+05
   (  1,  3,126)  (  1,  1,130)  (  1,136,212)  (  1,139,223)  (  1,129,222)
  0 -0.1807E+05  0 -0.2129E+05  0 -0.2304E+05  0 -0.2422E+05  0 -0.2474E+05
   (  1, 94,224)  (  1, 93,215)  (  1, 93,216)  (  1,112,213)  (  1,201,221)
  0 -0.2473E+05  0 -0.2560E+05  0 -0.2751E+05  0 -0.3251E+05  0 -0.3984E+05
   (  1,200,207)  (  1,195,206)  (  1,192,216)  (  1,189,225)  (  1,194,224)
  0 -0.5147E+05  0 -0.6863E+05  0 -0.8806E+05  0 -0.9950E+05  0 -0.1104E+06
   (  1,201,223)  (  1, 34,218)  (  1, 29,225)  (  1, 22,225)  (  1, 22,224)
  1   3979.      0   7731.      0  0.1001E+05  0   9385.      0   8429.    
   (  1, 21,223)  (  1, 22,225)  (  1, 29,225)  (  1, 34,218)  (  1,204,223)
  0   7535.      0   6887.      0   6489.      0   6352.      0   6167.    
   (  1,195,224)  (  1,190,225)  (  1,192,216)  (  1,198,210)  (  1,200,207)
  0   6115.      0  -6642.      0  -7378.      0  -7487.      0  -7055.    
   (  1,198,219)  (  1,  6,  4)  (  1,  2,  9)  (  1,  1, 15)  (  1, 18,  1)
  0  -6337.      0  -5120.      0  -4183.      0  -3253.      0  -2828.    
   (  1,  9,  5)  (  1,  2,  7)  (  1, 11, 29)  (  1, 24,  6)  (  1,135,  5)
  0  -2840.      0  -2958.      0  -2990.      0  -2602.      0  -2228.    
   (  1,139,  3)  (  1,110,  1)  (  1,102,  6)  (  1, 95,  8)  (  1, 83,  3)
  0  -1865.      0  -1523.      0  -1332.      0  -1318.      0  -1262.    
   (  1, 74,  9)  (  1, 65,  8)  (  1, 75,  8)  (  1, 53, 16)  (  1, 59, 14)
  1  -824.3      0  -1148.      0  -966.0      0  -1271.      0  -1591.    
   (  1,106,118)  (  1,106,118)  (  1,205,219)  (  1,202,225)  (  1,205,223)
  0  -1918.      0  -2477.      0  -3052.      0  -3543.      0  -4313.    
   (  1, 83,142)  (  1, 84,134)  (  1, 78,112)  (  1, 80,111)  (  1,  3,126)
  0  -5082.      0  -6238.      0  -7745.      0 -0.1081E+05  0 -0.1435E+05
   (  1,  3,126)  (  1,  1,130)  (  1,136,212)  (  1,139,223)  (  1,129,222)
  0 -0.1807E+05  0 -0.2130E+05  0 -0.2303E+05  0 -0.2420E+05  0 -0.2471E+05
   (  1, 94,224)  (  1, 93,215)  (  1, 93,216)  (  1,112,213)  (  1,198,219)
  0 -0.2472E+05  0 -0.2561E+05  0 -0.2750E+05  0 -0.3252E+05  0 -0.3984E+05
   (  1,200,207)  (  1,195,206)  (  1,192,216)  (  1,189,225)  (  1,194,224)
  0 -0.5151E+05  0 -0.6870E+05  0 -0.8809E+05  0 -0.9949E+05  0 -0.1101E+06
   (  1,201,223)  (  1, 34,218)  (  1, 29,225)  (  1, 22,225)  (  1, 22,224)
  1   3938.      0   7741.      0  0.1000E+05  0   9388.      0   8479.    
   (  1, 21,223)  (  1, 22,225)  (  1, 29,225)  (  1, 34,218)  (  1,204,223)
  0   7548.      0   6900.      0   6488.      0   6348.      0   6157.    
   (  1,195,224)  (  1,190,225)  (  1,192,216)  (  1,198,209)  (  1,200,207)
  0   6097.      0  -6625.      0  -7371.      0  -7493.      0  -7044.    
   (  1,198,219)  (  1,  6,  4)  (  1,  2,  9)  (  1,  1, 15)  (  1, 18,  1)
  0  -6341.      0  -5120.      0  -4183.      0  -3254.      0  -2829.    
   (  1,  9,  5)  (  1,  2,  7)  (  1, 11, 29)  (  1, 23,  6)  (  1,135,  5)
  0  -2833.      0  -2955.      0  -2990.      0  -2602.      0  -2228.    
   (  1,139,  3)  (  1,110,  1)  (  1,102,  6)  (  1, 95,  8)  (  1, 83,  3)
  0  -1864.      0  -1522.      0  -1332.      0  -1317.      0  -1260.    
   (  1, 74,  9)  (  1, 65,  8)  (  1, 75,  8)  (  1, 53, 16)  (  1, 59, 14)
  1  -811.9      0  -1136.      0  -969.0      0  -1271.      0  -1589.    
   (  1,106,118)  (  1,106,118)  (  1,205,219)  (  1,202,225)  (  1,205,223)
  0  -1916.      0  -2472.      0  -3049.      0  -3544.      0  -4296.    
   (  1, 83,142)  (  1, 84,134)  (  1, 78,112)  (  1, 83,114)  (  1,  3,126)
  0  -5067.      0  -6228.      0  -7743.      0 -0.1081E+05  0 -0.1435E+05
   (  1,  3,126)  (  1,  1,130)  (  1,136,212)  (  1,139,223)  (  1,131,225)
  0 -0.1808E+05  0 -0.2130E+05  0 -0.2303E+05  0 -0.2419E+05  0 -0.2468E+05
   (  1, 94,224)  (  1, 93,215)  (  1, 93,216)  (  1,112,213)  (  1,198,219)
  0 -0.2471E+05  0 -0.2562E+05  0 -0.2750E+05  0 -0.3253E+05  0 -0.3985E+05
   (  1,200,207)  (  1,195,206)  (  1,192,216)  (  1,189,225)  (  1,194,224)
  0 -0.5155E+05  0 -0.6875E+05  0 -0.8812E+05  0 -0.9949E+05  0 -0.1100E+06
   (  1,203,223)  (  1, 34,218)  (  1, 29,225)  (  1, 22,225)  (  1, 22,224)
  1   3898.      0   7751.      0   9995.      0   9388.      0   8528.    
   (  1, 21,223)  (  1, 22,225)  (  1, 29,225)  (  1, 34,218)  (  1,204,223)
  0   7562.      0   6914.      0   6487.      0   6348.      0   6145.    
   (  1,195,224)  (  1,189,225)  (  1,192,216)  (  1,195,206)  (  1,200,207)
  0   6079.      0  -6608.      0  -7364.      0  -7497.      0  -7033.    
   (  1,198,219)  (  1,  6,  4)  (  1,  2,  9)  (  1,  1, 15)  (  1, 18,  1)
  0  -6344.      0  -5119.      0  -4184.      0  -3256.      0  -2832.    
   (  1,  9,  5)  (  1,  2,  7)  (  1, 11, 29)  (  1, 23,  6)  (  1,136,  5)
  0  -2828.      0  -2953.      0  -2990.      0  -2602.      0  -2228.    
   (  1,139,  3)  (  1,110,  1)  (  1,102,  6)  (  1, 95,  8)  (  1, 83,  3)
  0  -1862.      0  -1522.      0  -1332.      0  -1316.      0  -1259.    
   (  1, 74,  9)  (  1, 65,  8)  (  1, 75,  8)  (  1, 53, 16)  (  1, 59, 14)
  1  -800.3      0  -1124.      0  -971.2      0  -1271.      0  -1586.    
   (  1,106,118)  (  1,106,118)  (  1,205,219)  (  1,202,225)  (  1,205,223)
  0  -1915.      0  -2467.      0  -3045.      0  -3544.      0  -4280.    
   (  1, 82,142)  (  1, 84,134)  (  1, 78,112)  (  1, 83,114)  (  1,  3,126)
  0  -5052.      0  -6219.      0  -7741.      0 -0.1082E+05  0 -0.1435E+05
   (  1,  3,126)  (  1,  1,130)  (  1,136,212)  (  1,139,223)  (  1,131,225)
  0 -0.1809E+05  0 -0.2130E+05  0 -0.2303E+05  0 -0.2417E+05  0 -0.2466E+05
   (  1, 94,224)  (  1, 93,215)  (  1, 93,216)  (  1,112,213)  (  1,198,219)
  0 -0.2470E+05  0 -0.2563E+05  0 -0.2749E+05  0 -0.3254E+05  0 -0.3986E+05
   (  1,200,207)  (  1,195,206)  (  1,192,216)  (  1,189,225)  (  1,194,224)
  0 -0.5160E+05  0 -0.6879E+05  0 -0.8815E+05  0 -0.9949E+05  0 -0.1098E+06
   (  1,203,223)  (  1, 34,218)  (  1, 29,225)  (  1, 22,225)  (  1, 22,224)
  1   3860.      0   7759.      0   9985.      0   9386.      0   8575.    
   (  1, 21,223)  (  1, 22,225)  (  1, 29,225)  (  1, 34,218)  (  1,204,223)
  0   7575.      0   6928.      0   6484.      0   6352.      0   6133.    
   (  1,195,224)  (  1,189,225)  (  1,192,216)  (  1,195,206)  (  1,200,207)
  0   6061.      0  -6593.      0  -7358.      0  -7501.      0  -7031.    
   (  1,198,219)  (  1,  6,  4)  (  1,  2,  9)  (  1,  1, 15)  (  1, 12,  1)
  0  -6347.      0  -5117.      0  -4184.      0  -3257.      0  -2834.    
   (  1,  9,  5)  (  1,  2,  7)  (  1, 11, 29)  (  1, 23,  6)  (  1,136,  5)
  0  -2823.      0  -2951.      0  -2990.      0  -2602.      0  -2227.    
   (  1,139,  3)  (  1,109,  1)  (  1,102,  6)  (  1, 95,  8)  (  1, 83,  3)
  0  -1861.      0  -1521.      0  -1332.      0  -1315.      0  -1257.    
   (  1, 74,  9)  (  1, 65,  8)  (  1, 75,  8)  (  1, 53, 16)  (  1, 59, 14)
  1  -789.4      0  -1114.      0  -972.8      0  -1270.      0  -1583.    
   (  1,106,118)  (  1,106,118)  (  1,205,219)  (  1,202,225)  (  1,205,223)
  0  -1915.      0  -2463.      0  -3042.      0  -3544.      0  -4266.    
   (  1, 82,142)  (  1, 82,133)  (  1, 78,112)  (  1, 83,114)  (  1,  3,126)
  0  -5038.      0  -6210.      0  -7739.      0 -0.1082E+05  0 -0.1435E+05
   (  1,  3,126)  (  1,  1,130)  (  1,136,212)  (  1,139,223)  (  1,131,225)
  0 -0.1810E+05  0 -0.2130E+05  0 -0.2303E+05  0 -0.2416E+05  0 -0.2464E+05
   (  1, 94,224)  (  1, 93,215)  (  1, 93,216)  (  1,112,213)  (  1,198,219)
  0 -0.2469E+05  0 -0.2564E+05  0 -0.2748E+05  0 -0.3255E+05  0 -0.3987E+05
   (  1,200,207)  (  1,195,206)  (  1,191,215)  (  1,189,225)  (  1,194,224)
  0 -0.5164E+05  0 -0.6883E+05  0 -0.8818E+05  0 -0.9949E+05  0 -0.1096E+06
   (  1,203,223)  (  1, 34,218)  (  1, 29,225)  (  1, 22,225)  (  1, 22,224)
  1   3825.      0   7766.      0   9976.      0   9384.      0   8620.    
   (  1, 21,223)  (  1, 22,225)  (  1, 29,225)  (  1, 34,218)  (  1,204,223)
  0   7591.      0   6942.      0   6481.      0   6354.      0   6120.    
   (  1,194,224)  (  1,189,225)  (  1,192,216)  (  1,195,206)  (  1,200,207)
  0   6042.      0  -6579.      0  -7353.      0  -7505.      0  -7036.    
   (  1,198,219)  (  1,  6,  4)  (  1,  2,  9)  (  1,  1, 15)  (  1, 12,  1)
  0  -6348.      0  -5114.      0  -4183.      0  -3257.      0  -2835.    
   (  1,  9,  5)  (  1,  2,  7)  (  1, 11, 29)  (  1, 23,  6)  (  1,136,  5)
  0  -2818.      0  -2949.      0  -2990.      0  -2602.      0  -2227.    
   (  1,139,  3)  (  1,109,  1)  (  1,102,  6)  (  1, 96,  8)  (  1, 83,  3)
  0  -1860.      0  -1521.      0  -1332.      0  -1313.      0  -1256.    
   (  1, 74,  9)  (  1, 65,  8)  (  1, 75,  8)  (  1, 53, 16)  (  1, 59, 14)
  1  -779.1      0  -1104.      0  -973.8      0  -1268.      0  -1579.    
   (  1,106,118)  (  1,106,118)  (  1,205,219)  (  1,202,225)  (  1,205,223)
  0  -1914.      0  -2459.      0  -3038.      0  -3544.      0  -4253.    
   (  1, 82,142)  (  1, 82,133)  (  1, 78,112)  (  1, 83,114)  (  1,  3,126)
  0  -5026.      0  -6202.      0  -7737.      0 -0.1083E+05  0 -0.1434E+05
   (  1,  3,125)  (  1,  1,130)  (  1,136,212)  (  1,139,223)  (  1,131,225)
  0 -0.1810E+05  0 -0.2130E+05  0 -0.2302E+05  0 -0.2415E+05  0 -0.2461E+05
   (  1, 94,224)  (  1, 93,215)  (  1, 93,216)  (  1,112,213)  (  1,198,219)
  0 -0.2467E+05  0 -0.2564E+05  0 -0.2748E+05  0 -0.3255E+05  0 -0.3988E+05
   (  1,200,207)  (  1,195,206)  (  1,191,215)  (  1,189,225)  (  1,194,224)
  0 -0.5168E+05  0 -0.6887E+05  0 -0.8821E+05  0 -0.9949E+05  0 -0.1095E+06
   (  1,203,223)  (  1, 34,218)  (  1, 29,225)  (  1, 22,225)  (  1, 22,224)
  1   3793.      0   7771.      0   9967.      0   9380.      0   8665.    
   (  1, 21,223)  (  1, 22,225)  (  1, 29,225)  (  1, 34,218)  (  1,204,223)
  0   7609.      0   6955.      0   6478.      0   6356.      0   6107.    
   (  1,194,224)  (  1,189,225)  (  1,192,216)  (  1,195,206)  (  1,200,207)
  0   6024.      0  -6565.      0  -7350.      0  -7508.      0  -7040.    
   (  1,198,219)  (  1,  6,  4)  (  1,  4, 11)  (  1,  1, 15)  (  1, 12,  1)
  0  -6349.      0  -5110.      0  -4183.      0  -3258.      0  -2836.    
   (  1,  9,  5)  (  1,  2,  7)  (  1, 11, 29)  (  1, 23,  6)  (  1,136,  5)
  0  -2814.      0  -2947.      0  -2991.      0  -2602.      0  -2227.    
   (  1,139,  3)  (  1,109,  1)  (  1,102,  6)  (  1, 96,  8)  (  1, 83,  3)
  0  -1859.      0  -1520.      0  -1332.      0  -1312.      0  -1255.    
   (  1, 74,  9)  (  1, 65,  8)  (  1, 75,  8)  (  1, 53, 16)  (  1, 60, 15)
  1  -769.3      0  -1095.      0  -974.2      0  -1265.      0  -1575.    
   (  1,106,118)  (  1,106,118)  (  1,205,219)  (  1,202,225)  (  1,205,223)
  0  -1914.      0  -2456.      0  -3034.      0  -3544.      0  -4241.    
   (  1, 82,142)  (  1, 82,133)  (  1, 78,112)  (  1, 83,114)  (  1,  3,126)
  0  -5015.      0  -6193.      0  -7735.      0 -0.1083E+05  0 -0.1434E+05
   (  1,  3,125)  (  1,  1,130)  (  1,136,212)  (  1,139,223)  (  1,131,225)
  0 -0.1811E+05  0 -0.2130E+05  0 -0.2302E+05  0 -0.2413E+05  0 -0.2459E+05
   (  1, 94,224)  (  1, 93,215)  (  1, 93,216)  (  1,112,213)  (  1,198,219)
  0 -0.2466E+05  0 -0.2565E+05  0 -0.2748E+05  0 -0.3255E+05  0 -0.3989E+05
   (  1,200,207)  (  1,195,206)  (  1,191,215)  (  1,189,225)  (  1,194,224)
  0 -0.5173E+05  0 -0.6889E+05  0 -0.8823E+05  0 -0.9949E+05  0 -0.1094E+06
   (  1,203,223)  (  1, 34,218)  (  1, 29,225)  (  1, 22,225)  (  1, 22,224)
  1   3763.      0   7775.      0   9958.      0   9375.      0   8709.    
   (  1, 21,223)  (  1, 22,225)  (  1, 29,225)  (  1, 34,218)  (  1,204,223)
  0   7627.      0   6968.      0   6476.      0   6356.      0   6093.    
   (  1,194,224)  (  1,189,225)  (  1,191,215)  (  1,195,206)  (  1,200,207)
  0   6004.      0  -6553.      0  -7350.      0  -7511.      0  -7044.    
   (  1,198,219)  (  1,  6,  4)  (  1,  4, 11)  (  1,  1, 15)  (  1, 12,  1)
  0  -6353.      0  -5106.      0  -4182.      0  -3258.      0  -2837.    
   (  1,  8,  5)  (  1,  2,  7)  (  1, 11, 29)  (  1, 23,  6)  (  1,136,  5)
  0  -2810.      0  -2945.      0  -2991.      0  -2602.      0  -2226.    
   (  1,139,  3)  (  1,109,  1)  (  1,102,  6)  (  1, 96,  8)  (  1, 82,  3)
  0  -1858.      0  -1519.      0  -1331.      0  -1311.      0  -1253.    
   (  1, 74,  9)  (  1, 65,  8)  (  1, 75,  8)  (  1, 53, 16)  (  1, 60, 15)
  1  -760.2      0  -1086.      0  -974.1      0  -1262.      0  -1571.    
   (  1,106,118)  (  1,106,118)  (  1,205,219)  (  1,202,225)  (  1,205,223)
  0  -1914.      0  -2453.      0  -3030.      0  -3544.      0  -4229.    
   (  1, 84,146)  (  1, 82,133)  (  1, 78,112)  (  1, 83,114)  (  1,  3,126)
  0  -5004.      0  -6185.      0  -7734.      0 -0.1083E+05  0 -0.1434E+05
   (  1,  3,125)  (  1,  1,130)  (  1,138,214)  (  1,139,223)  (  1,131,225)
  0 -0.1812E+05  0 -0.2130E+05  0 -0.2302E+05  0 -0.2412E+05  0 -0.2456E+05
   (  1, 94,224)  (  1, 93,215)  (  1, 93,216)  (  1,112,213)  (  1,198,219)
  0 -0.2465E+05  0 -0.2565E+05  0 -0.2747E+05  0 -0.3256E+05  0 -0.3990E+05
   (  1,200,207)  (  1,195,206)  (  1,191,215)  (  1,189,225)  (  1,194,224)
  0 -0.5177E+05  0 -0.6892E+05  0 -0.8826E+05  0 -0.9949E+05  0 -0.1093E+06
   (  1,203,223)  (  1, 34,218)  (  1, 28,225)  (  1, 22,225)  (  1, 22,224)
  1   3737.      0   7778.      0   9949.      0   9369.      0   8752.    
   (  1, 21,223)  (  1, 22,225)  (  1, 28,225)  (  1, 34,218)  (  1,204,223)
  0   7645.      0   6979.      0   6475.      0   6355.      0   6078.    
   (  1,194,224)  (  1,189,225)  (  1,191,215)  (  1,195,206)  (  1,200,207)
  0   5985.      0  -6542.      0  -7349.      0  -7513.      0  -7047.    
   (  1,198,219)  (  1,  6,  4)  (  1,  4, 11)  (  1,  1, 15)  (  1, 12,  1)
  0  -6357.      0  -5101.      0  -4180.      0  -3258.      0  -2838.    
   (  1,  8,  5)  (  1,  2,  7)  (  1, 11, 29)  (  1, 23,  6)  (  1,136,  5)
  0  -2807.      0  -2943.      0  -2991.      0  -2602.      0  -2227.    
   (  1,140,  3)  (  1,109,  1)  (  1,102,  6)  (  1, 96,  8)  (  1, 82,  3)
  0  -1857.      0  -1519.      0  -1331.      0  -1310.      0  -1252.    
   (  1, 74,  9)  (  1, 65,  8)  (  1, 75,  8)  (  1, 53, 16)  (  1, 60, 15)
  1  -751.6      0  -1078.      0  -973.5      0  -1259.      0  -1566.    
   (  1,106,118)  (  1,106,118)  (  1,205,219)  (  1,202,225)  (  1,205,223)
  0  -1916.      0  -2450.      0  -3027.      0  -3543.      0  -4219.    
   (  1, 84,146)  (  1, 82,133)  (  1, 78,112)  (  1, 83,114)  (  1,  3,126)
  0  -4995.      0  -6177.      0  -7733.      0 -0.1083E+05  0 -0.1434E+05
   (  1,  3,125)  (  1,  1,130)  (  1,138,214)  (  1,139,223)  (  1,131,225)
  0 -0.1813E+05  0 -0.2130E+05  0 -0.2301E+05  0 -0.2411E+05  0 -0.2454E+05
   (  1, 94,224)  (  1, 93,215)  (  1, 93,216)  (  1,112,213)  (  1,198,219)
  0 -0.2464E+05  0 -0.2565E+05  0 -0.2747E+05  0 -0.3256E+05  0 -0.3992E+05
   (  1,200,207)  (  1,195,206)  (  1,191,215)  (  1,189,225)  (  1,194,224)
  0 -0.5181E+05  0 -0.6894E+05  0 -0.8829E+05  0 -0.9949E+05  0 -0.1092E+06
   (  1,203,223)  (  1, 34,218)  (  1, 28,225)  (  1, 22,225)  (  1, 22,224)
  1   3714.      0   7779.      0   9948.      0   9364.      0   8796.    
   (  1, 21,223)  (  1, 22,225)  (  1, 28,225)  (  1, 31,224)  (  1,204,223)
  0   7664.      0   6990.      0   6473.      0   6353.      0   6063.    
   (  1,194,224)  (  1,189,225)  (  1,191,215)  (  1,195,206)  (  1,200,207)
  0   5964.      0  -6532.      0  -7350.      0  -7516.      0  -7050.    
   (  1,198,219)  (  1,  6,  4)  (  1,  4, 11)  (  1,  1, 15)  (  1, 12,  1)
  0  -6360.      0  -5096.      0  -4179.      0  -3257.      0  -2838.    
   (  1,  8,  5)  (  1,  2,  7)  (  1, 11, 29)  (  1, 23,  6)  (  1,136,  5)
  0  -2805.      0  -2941.      0  -2992.      0  -2601.      0  -2227.    
   (  1,140,  3)  (  1,109,  1)  (  1,102,  6)  (  1, 96,  8)  (  1, 82,  3)
  0  -1856.      0  -1518.      0  -1330.      0  -1308.      0  -1251.    
   (  1, 74,  9)  (  1, 65,  8)  (  1, 75,  8)  (  1, 53, 16)  (  1, 60, 15)
  1  -743.4      0  -1070.      0  -972.5      0  -1256.      0  -1560.    
   (  1,106,118)  (  1,106,118)  (  1,205,219)  (  1,202,225)  (  1,205,223)
  0  -1917.      0  -2447.      0  -3023.      0  -3543.      0  -4209.    
   (  1, 84,146)  (  1, 82,133)  (  1, 78,112)  (  1, 83,114)  (  1,  3,126)
  0  -4986.      0  -6169.      0  -7734.      0 -0.1083E+05  0 -0.1434E+05
   (  1,  3,125)  (  1,  1,130)  (  1,138,222)  (  1,139,223)  (  1,131,225)
  0 -0.1814E+05  0 -0.2130E+05  0 -0.2301E+05  0 -0.2410E+05  0 -0.2451E+05
   (  1, 94,224)  (  1, 93,215)  (  1, 93,216)  (  1,112,213)  (  1,198,219)
  0 -0.2462E+05  0 -0.2565E+05  0 -0.2746E+05  0 -0.3256E+05  0 -0.3993E+05
   (  1,200,206)  (  1,195,206)  (  1,191,215)  (  1,188,225)  (  1,194,224)
  0 -0.5186E+05  0 -0.6897E+05  0 -0.8832E+05  0 -0.9948E+05  0 -0.1091E+06
   (  1,203,223)  (  1, 31,224)  (  1, 28,225)  (  1, 22,225)  (  1, 22,224)
  1   3693.      0   7780.      0   9947.      0   9367.      0   8840.    
   (  1, 21,223)  (  1, 22,225)  (  1, 28,225)  (  1, 31,224)  (  1,204,223)
  0   7684.      0   7001.      0   6471.      0   6351.      0   6048.    
   (  1,196,225)  (  1,189,225)  (  1,191,215)  (  1,195,206)  (  1,200,207)
  0   5943.      0  -6522.      0  -7351.      0  -7519.      0  -7052.    
   (  1,198,219)  (  1,  6,  4)  (  1,  4, 11)  (  1,  1, 15)  (  1, 12,  1)
  0  -6362.      0  -5091.      0  -4177.      0  -3257.      0  -2839.    
   (  1,  8,  5)  (  1,  2,  7)  (  1, 10, 29)  (  1, 23,  6)  (  1,136,  5)
  0  -2803.      0  -2939.      0  -2992.      0  -2601.      0  -2227.    
   (  1,140,  3)  (  1,109,  1)  (  1,102,  6)  (  1, 96,  8)  (  1, 82,  3)
  0  -1855.      0  -1518.      0  -1329.      0  -1307.      0  -1249.    
   (  1, 74,  9)  (  1, 65,  8)  (  1, 75,  8)  (  1, 53, 16)  (  1, 60, 15)
  1  -735.7      0  -1063.      0  -971.1      0  -1252.      0  -1555.    
   (  1,106,118)  (  1,106,118)  (  1,205,219)  (  1,202,225)  (  1,205,223)
  0  -1919.      0  -2444.      0  -3019.      0  -3542.      0  -4200.    
   (  1, 84,146)  (  1, 82,133)  (  1, 78,112)  (  1, 83,114)  (  1,  3,126)
  0  -4977.      0  -6162.      0  -7738.      0 -0.1083E+05  0 -0.1434E+05
   (  1,  3,125)  (  1,  1,130)  (  1,138,222)  (  1,139,223)  (  1,131,225)
  0 -0.1814E+05  0 -0.2130E+05  0 -0.2300E+05  0 -0.2408E+05  0 -0.2449E+05
   (  1, 94,224)  (  1, 94,216)  (  1, 93,216)  (  1,112,213)  (  1,198,219)
  0 -0.2461E+05  0 -0.2565E+05  0 -0.2746E+05  0 -0.3256E+05  0 -0.3995E+05
   (  1,200,206)  (  1,195,206)  (  1,191,215)  (  1,188,225)  (  1,194,224)
  0 -0.5190E+05  0 -0.6900E+05  0 -0.8834E+05  0 -0.9948E+05  0 -0.1090E+06
   (  1,203,223)  (  1,204,224)  (  1, 28,225)  (  1, 22,225)  (  1, 22,224)
  1   3676.      0   7779.      0   9946.      0   9391.      0   8884.    
   (  1, 21,223)  (  1, 22,225)  (  1, 28,225)  (  1,204,224)  (  1,204,223)
  0   7704.      0   7011.      0   6468.      0   6348.      0   6033.    
   (  1,196,225)  (  1,189,225)  (  1,191,215)  (  1,195,206)  (  1,200,207)
  0   5922.      0  -6514.      0  -7352.      0  -7521.      0  -7053.    
   (  1,198,219)  (  1,  6,  4)  (  1,  4, 11)  (  1,  1, 15)  (  1, 12,  1)
  0  -6363.      0  -5084.      0  -4176.      0  -3256.      0  -2839.    
   (  1,  8,  5)  (  1,  2,  7)  (  1, 10, 29)  (  1, 23,  6)  (  1,136,  5)
  0  -2802.      0  -2937.      0  -2992.      0  -2600.      0  -2227.    
   (  1,140,  3)  (  1,109,  1)  (  1,102,  6)  (  1, 96,  8)  (  1, 82,  3)
  0  -1855.      0  -1517.      0  -1330.      0  -1306.      0  -1248.    
   (  1, 74,  9)  (  1, 65,  8)  (  1, 86, 19)  (  1, 53, 16)  (  1, 60, 15)
  1  -728.4      0  -1057.      0  -969.4      0  -1247.      0  -1549.    
   (  1,106,118)  (  1,106,118)  (  1,205,219)  (  1,202,225)  (  1,205,223)
  0  -1921.      0  -2442.      0  -3015.      0  -3542.      0  -4192.    
   (  1, 84,146)  (  1, 85,136)  (  1, 78,113)  (  1, 83,114)  (  1,  3,126)
  0  -4969.      0  -6155.      0  -7742.      0 -0.1083E+05  0 -0.1433E+05
   (  1,  3,125)  (  1,  1,131)  (  1,138,222)  (  1,139,223)  (  1,131,225)
  0 -0.1815E+05  0 -0.2130E+05  0 -0.2300E+05  0 -0.2407E+05  0 -0.2446E+05
   (  1, 94,224)  (  1, 94,216)  (  1, 93,216)  (  1,112,213)  (  1,198,219)
  0 -0.2460E+05  0 -0.2565E+05  0 -0.2745E+05  0 -0.3257E+05  0 -0.3996E+05
   (  1,200,206)  (  1,195,206)  (  1,190,214)  (  1,188,225)  (  1,194,224)
  0 -0.5194E+05  0 -0.6908E+05  0 -0.8837E+05  0 -0.9947E+05  0 -0.1089E+06
   (  1,203,223)  (  1,204,224)  (  1, 28,225)  (  1, 22,225)  (  1, 22,224)
  1   3661.      0   7777.      0   9946.      0   9447.      0   8928.    
   (  1, 21,223)  (  1, 22,225)  (  1, 28,225)  (  1,204,224)  (  1,204,223)
  0   7726.      0   7021.      0   6465.      0   6345.      0   6017.    
   (  1,196,225)  (  1,188,225)  (  1,190,214)  (  1,195,206)  (  1,200,206)
  0   5899.      0  -6507.      0  -7354.      0  -7526.      0  -7055.    
   (  1,198,219)  (  1,  6,  4)  (  1,  4, 11)  (  1,  2, 16)  (  1, 12,  1)
  0  -6364.      0  -5080.      0  -4175.      0  -3255.      0  -2840.    
   (  1,  8,  5)  (  1,  1,  7)  (  1, 10, 29)  (  1, 23,  6)  (  1,136,  5)
  0  -2800.      0  -2935.      0  -2992.      0  -2599.      0  -2227.    
   (  1,140,  3)  (  1,109,  1)  (  1,102,  6)  (  1, 96,  8)  (  1, 82,  3)
  0  -1855.      0  -1516.      0  -1330.      0  -1305.      0  -1246.    
   (  1, 74,  9)  (  1, 65,  8)  (  1, 86, 19)  (  1, 53, 16)  (  1, 60, 15)

 MAXIMUM RESIDUAL FOR EACH ITERATION (1 INDICATES THE FIRST INNER ITERATION):

    RESIDUAL       RESIDUAL       RESIDUAL       RESIDUAL       RESIDUAL    
   LAYER,ROW,COL  LAYER,ROW,COL  LAYER,ROW,COL  LAYER,ROW,COL  LAYER,ROW,COL
 ---------------------------------------------------------------------------
  1  0.1160E+06  0  0.2683E+05  0 -0.8209E+05  0 -0.1199E+06  0 -0.1131E+06
   (  1, 58, 76)  (  1, 59, 75)  (  1, 58, 76)  (  1, 58, 76)  (  1, 58, 76)
  0 -0.1134E+06  0 -0.1387E+06  0 -0.9194E+05  0  0.1027E+06  0  0.7857E+05
   (  1, 59, 75)  (  1, 57, 77)  (  1, 57, 77)  (  1, 58, 76)  (  1, 58, 76)
  0  0.9976E+05  0  0.8524E+05  0  0.5228E+05  0  0.7154E+05  0 -0.8838E+05
   (  1, 57, 77)  (  1, 57, 77)  (  1, 56, 78)  (  1, 60, 74)  (  1, 59, 75)
  0 -0.1077E+06  0 -0.8142E+05  0 -0.1266E+06  0 -0.1256E+06  0  0.1192E+06
   (  1, 57, 77)  (  1, 57, 77)  (  1, 60, 74)  (  1, 56, 78)  (  1, 57, 77)
  0  0.1407E+06  0  0.2005E+06  0  0.2816E+06  0  0.2450E+06  0 -0.1946E+06
   (  1, 57, 77)  (  1, 56, 78)  (  1, 56, 78)  (  1, 56, 78)  (  1, 58, 76)
  0 -0.2238E+06  0 -0.3657E+06  0 -0.4870E+06  0 -0.4443E+06  0 -0.5145E+06
   (  1, 58, 76)  (  1, 56, 78)  (  1, 56, 78)  (  1, 60, 74)  (  1, 61, 73)
  1 -0.3890E+06  0 -0.1222E+06  0  0.1678E+06  0  0.3140E+06  0  0.3127E+06
   (  1, 61, 73)  (  1, 60, 74)  (  1, 61, 73)  (  1, 61, 73)  (  1, 61, 73)
  0  0.2335E+06  0  0.1814E+06  0  0.1724E+06  0 -0.1701E+06  0 -0.1748E+06
   (  1, 56, 78)  (  1, 56, 78)  (  1, 54, 80)  (  1, 55, 79)  (  1, 60, 74)
  0 -0.1815E+06  0 -0.1161E+06  0 -0.7500E+05  0  0.7500E+05  0  0.1120E+06
   (  1, 60, 74)  (  1, 60, 74)  (  1, 62, 72)  (  1, 60, 74)  (  1, 60, 74)
  0  0.9443E+05  0 -0.5118E+05  0  0.4511E+05  0 -0.6720E+05  0 -0.7115E+05
   (  1, 60, 74)  (  1, 58, 76)  (  1, 59, 75)  (  1, 60, 74)  (  1, 60, 74)
  0  0.8525E+05  0  0.9259E+05  0 -0.7479E+05  0 -0.5211E+05  0 -0.7134E+05
   (  1, 58, 76)  (  1, 58, 76)  (  1, 57, 77)  (  1, 57, 77)  (  1, 58, 76)
  0 -0.9224E+05  0 -0.6764E+05  0  0.1802E+05  0  0.7097E+05  0  0.1295E+06
   (  1, 58, 76)  (  1, 58, 76)  (  1, 57, 78)  (  1, 58, 76)  (  1, 58, 76)
  1  0.7626E+05  0  0.1252E+05  0 -0.6181E+05  0 -0.8813E+05  0 -0.6819E+05
   (  1, 58, 76)  (  1, 57, 78)  (  1, 58, 76)  (  1, 58, 76)  (  1, 58, 76)
  0 -0.3600E+05  0 -0.5746E+05  0  0.9934E+05  0  0.9681E+05  0 -0.6618E+05
   (  1, 59, 75)  (  1, 59, 75)  (  1, 58, 76)  (  1, 58, 76)  (  1, 60, 74)
  0  0.7279E+05  0  0.6057E+05  0 -0.8892E+05  0  0.1041E+06  0  0.1270E+06
   (  1, 57, 77)  (  1, 57, 77)  (  1, 58, 76)  (  1, 60, 74)  (  1, 60, 74)
  0 -0.9602E+05  0 -0.7525E+05  0 -0.8981E+05  0 -0.1303E+06  0 -0.1068E+06
   (  1, 57, 77)  (  1, 56, 79)  (  1, 60, 74)  (  1, 60, 74)  (  1, 56, 78)
  0 -0.1055E+06  0 -0.1189E+06  0  0.1253E+06  0  0.1416E+06  0  0.1813E+06
   (  1, 61, 73)  (  1, 61, 73)  (  1, 56, 78)  (  1, 56, 78)  (  1, 55, 79)
  0  0.2511E+06  0  0.2116E+06  0 -0.1507E+06  0  0.3189E+06  0 -0.4450E+06
   (  1, 55, 79)  (  1, 61, 73)  (  1, 56, 78)  (  1, 58, 76)  (  1, 61, 73)
  1  0.3362E+06  0  0.1259E+06  0  0.1357E+06  0  0.2323E+06  0  0.2016E+06
   (  1, 58, 76)  (  1, 58, 76)  (  1, 61, 73)  (  1, 61, 73)  (  1, 61, 73)
  0 -0.1424E+06  0  0.1048E+06  0  0.9979E+05  0 -0.1074E+06  0 -0.1079E+06
   (  1, 58, 76)  (  1, 60, 74)  (  1, 54, 80)  (  1, 55, 79)  (  1, 60, 74)
  0 -0.1258E+06  0 -0.8487E+05  0 -0.6283E+05  0  0.8448E+05  0  0.1193E+06
   (  1, 60, 74)  (  1, 60, 74)  (  1, 56, 79)  (  1, 60, 74)  (  1, 60, 74)
  0  0.9464E+05  0 -0.7837E+05  0 -0.4964E+05  0 -0.6577E+05  0 -0.6079E+05
   (  1, 60, 74)  (  1, 58, 76)  (  1, 58, 76)  (  1, 60, 74)  (  1, 60, 74)
  0  0.8398E+05  0  0.8933E+05  0  0.4950E+05  0  0.3286E+05  0 -0.6333E+05
   (  1, 58, 76)  (  1, 58, 76)  (  1, 58, 76)  (  1, 60, 74)  (  1, 58, 76)
  0 -0.8651E+05  0 -0.6278E+05  0  0.1331E+05  0  0.6885E+05  0  0.1176E+06
   (  1, 58, 76)  (  1, 58, 76)  (  1, 57, 78)  (  1, 58, 76)  (  1, 58, 76)
  1  0.7161E+05  0  0.1151E+05  0 -0.5744E+05  0 -0.8133E+05  0 -0.6119E+05
   (  1, 58, 76)  (  1, 57, 78)  (  1, 58, 76)  (  1, 58, 76)  (  1, 58, 76)
  0 -0.2851E+05  0 -0.4561E+05  0  0.8148E+05  0  0.8006E+05  0 -0.5654E+05
   (  1, 59, 75)  (  1, 59, 75)  (  1, 58, 76)  (  1, 58, 76)  (  1, 60, 74)
  0  0.6344E+05  0  0.5212E+05  0 -0.8014E+05  0  0.9724E+05  0  0.1239E+06
   (  1, 57, 77)  (  1, 59, 75)  (  1, 58, 76)  (  1, 60, 74)  (  1, 60, 74)
  0 -0.9674E+05  0 -0.7551E+05  0 -0.9150E+05  0 -0.1363E+06  0 -0.1135E+06
   (  1, 57, 77)  (  1, 56, 79)  (  1, 60, 74)  (  1, 60, 74)  (  1, 60, 74)
  0 -0.1032E+06  0 -0.1089E+06  0  0.1078E+06  0  0.1239E+06  0  0.1718E+06
   (  1, 61, 73)  (  1, 61, 73)  (  1, 60, 74)  (  1, 56, 78)  (  1, 55, 79)
  0  0.2281E+06  0  0.1722E+06  0 -0.1052E+06  0  0.2492E+06  0 -0.3825E+06
   (  1, 61, 73)  (  1, 61, 73)  (  1, 56, 78)  (  1, 58, 76)  (  1, 61, 73)
  1 -0.2784E+06  0  0.1026E+06  0  0.1215E+06  0  0.2134E+06  0  0.1830E+06
   (  1, 61, 73)  (  1, 58, 76)  (  1, 61, 73)  (  1, 61, 73)  (  1, 61, 73)
  0 -0.1218E+06  0  0.9379E+05  0 -0.9306E+05  0 -0.1033E+06  0 -0.1056E+06
   (  1, 58, 76)  (  1, 60, 74)  (  1, 61, 73)  (  1, 55, 79)  (  1, 60, 74)
  0 -0.1260E+06  0 -0.8779E+05  0 -0.6372E+05  0 -0.8358E+05  0  0.1164E+06
   (  1, 60, 74)  (  1, 60, 74)  (  1, 56, 79)  (  1, 57, 77)  (  1, 60, 74)
  0  0.9240E+05  0 -0.7539E+05  0 -0.5023E+05  0 -0.5838E+05  0 -0.5472E+05
   (  1, 60, 74)  (  1, 58, 76)  (  1, 58, 76)  (  1, 60, 74)  (  1, 60, 74)
  0  0.7122E+05  0  0.7617E+05  0  0.4352E+05  0  0.2662E+05  0 -0.5417E+05
   (  1, 58, 76)  (  1, 58, 76)  (  1, 58, 76)  (  1, 60, 74)  (  1, 58, 76)
  0 -0.7613E+05  0 -0.5712E+05  0  0.1102E+05  0  0.6209E+05  0  0.1075E+06
   (  1, 58, 76)  (  1, 58, 76)  (  1, 57, 78)  (  1, 58, 76)  (  1, 58, 76)
  1  0.6676E+05  0 -0.1099E+05  0 -0.5411E+05  0 -0.7554E+05  0 -0.5671E+05
   (  1, 58, 76)  (  1,107,119)  (  1, 58, 76)  (  1, 58, 76)  (  1, 58, 76)
  0 -0.2545E+05  0 -0.4112E+05  0  0.7438E+05  0  0.7344E+05  0 -0.5236E+05
   (  1, 59, 75)  (  1, 59, 75)  (  1, 58, 76)  (  1, 58, 76)  (  1, 60, 74)
  0  0.5832E+05  0 -0.4892E+05  0 -0.7505E+05  0  0.9118E+05  0  0.1183E+06
   (  1, 59, 75)  (  1, 58, 76)  (  1, 58, 76)  (  1, 60, 74)  (  1, 60, 74)
  0 -0.9149E+05  0 -0.7213E+05  0 -0.8659E+05  0 -0.1308E+06  0 -0.1104E+06
   (  1, 57, 77)  (  1, 56, 79)  (  1, 60, 74)  (  1, 60, 74)  (  1, 60, 74)
  0 -0.9963E+05  0 -0.1032E+06  0  0.9845E+05  0  0.1133E+06  0  0.1642E+06
   (  1, 61, 73)  (  1, 61, 73)  (  1, 60, 74)  (  1, 56, 78)  (  1, 61, 73)
  0  0.2168E+06  0  0.1570E+06  0 -0.8948E+05  0  0.2286E+06  0 -0.3632E+06
   (  1, 61, 73)  (  1, 61, 73)  (  1, 56, 78)  (  1, 58, 76)  (  1, 61, 73)
  1 -0.2627E+06  0  0.9266E+05  0  0.1175E+06  0  0.2063E+06  0  0.1741E+06
   (  1, 61, 73)  (  1, 58, 76)  (  1, 61, 73)  (  1, 61, 73)  (  1, 61, 73)
  0 -0.1120E+06  0  0.8852E+05  0 -0.8979E+05  0 -0.9852E+05  0 -0.1005E+06
   (  1, 58, 76)  (  1, 60, 74)  (  1, 61, 73)  (  1, 55, 79)  (  1, 60, 74)
  0 -0.1196E+06  0 -0.8359E+05  0 -0.6230E+05  0 -0.8023E+05  0  0.1121E+06
   (  1, 60, 74)  (  1, 60, 74)  (  1, 56, 79)  (  1, 57, 77)  (  1, 60, 74)
  0  0.8852E+05  0 -0.7173E+05  0 -0.4847E+05  0 -0.5497E+05  0 -0.5178E+05
   (  1, 60, 74)  (  1, 58, 76)  (  1, 58, 76)  (  1, 60, 74)  (  1, 60, 74)
  0  0.6672E+05  0  0.7055E+05  0  0.4064E+05  0  0.2420E+05  0 -0.5016E+05
   (  1, 58, 76)  (  1, 58, 76)  (  1, 58, 76)  (  1, 60, 74)  (  1, 58, 76)
  0 -0.7003E+05  0 -0.5319E+05  0  0.1010E+05  0  0.5852E+05  0  0.9965E+05
   (  1, 58, 76)  (  1, 58, 76)  (  1, 57, 78)  (  1, 58, 76)  (  1, 58, 76)
  1  0.6258E+05  0 -0.1050E+05  0 -0.5148E+05  0 -0.7099E+05  0 -0.5351E+05
   (  1, 58, 76)  (  1,107,119)  (  1, 58, 76)  (  1, 58, 76)  (  1, 58, 76)
  0 -0.2373E+05  0 -0.3847E+05  0  0.7013E+05  0  0.6961E+05  0 -0.4987E+05
   (  1, 59, 75)  (  1, 59, 75)  (  1, 58, 76)  (  1, 58, 76)  (  1, 60, 74)
  0  0.5487E+05  0 -0.4706E+05  0 -0.7122E+05  0  0.8616E+05  0  0.1128E+06
   (  1, 59, 75)  (  1, 58, 76)  (  1, 58, 76)  (  1, 60, 74)  (  1, 60, 74)
  0 -0.8567E+05  0 -0.6823E+05  0 -0.8149E+05  0 -0.1233E+06  0 -0.1052E+06
   (  1, 57, 77)  (  1, 56, 79)  (  1, 60, 74)  (  1, 60, 74)  (  1, 60, 74)
  0 -0.9513E+05  0 -0.9748E+05  0  0.9239E+05  0  0.1063E+06  0  0.1588E+06
   (  1, 61, 73)  (  1, 61, 73)  (  1, 60, 74)  (  1, 56, 78)  (  1, 61, 73)
  0  0.2084E+06  0  0.1473E+06  0 -0.8217E+05  0 -0.2167E+06  0 -0.3476E+06
   (  1, 61, 73)  (  1, 61, 73)  (  1, 60, 74)  (  1, 61, 73)  (  1, 61, 73)
  1 -0.2496E+06  0  0.8546E+05  0  0.1144E+06  0  0.2000E+06  0  0.1668E+06
   (  1, 61, 73)  (  1, 58, 76)  (  1, 61, 73)  (  1, 61, 73)  (  1, 61, 73)
  0 -0.1056E+06  0  0.8474E+05  0 -0.8735E+05  0 -0.9492E+05  0 -0.9710E+05
   (  1, 58, 76)  (  1, 60, 74)  (  1, 61, 73)  (  1, 55, 79)  (  1, 60, 74)
  0 -0.1143E+06  0 -0.7962E+05  0 -0.6080E+05  0 -0.7666E+05  0  0.1078E+06
   (  1, 60, 74)  (  1, 60, 74)  (  1, 56, 79)  (  1, 57, 77)  (  1, 60, 74)
  0  0.8447E+05  0 -0.6832E+05  0 -0.4638E+05  0 -0.5257E+05  0 -0.4967E+05
   (  1, 60, 74)  (  1, 58, 76)  (  1, 58, 76)  (  1, 60, 74)  (  1, 60, 74)
  0  0.6418E+05  0  0.6694E+05  0  0.3853E+05  0  0.2287E+05  0 -0.4838E+05
   (  1, 58, 76)  (  1, 58, 76)  (  1, 58, 76)  (  1, 60, 74)  (  1, 58, 76)
  0 -0.6662E+05  0 -0.5073E+05  0  -9695.      0  0.5628E+05  0  0.9394E+05
   (  1, 58, 76)  (  1, 58, 76)  (  1,107,119)  (  1, 58, 76)  (  1, 58, 76)
  1  0.5928E+05  0 -0.1009E+05  0 -0.4932E+05  0 -0.6742E+05  0 -0.5094E+05
   (  1, 58, 76)  (  1,107,119)  (  1, 58, 76)  (  1, 58, 76)  (  1, 58, 76)
  0 -0.2241E+05  0 -0.3634E+05  0  0.6668E+05  0  0.6653E+05  0 -0.4789E+05
   (  1, 59, 75)  (  1, 59, 75)  (  1, 58, 76)  (  1, 58, 76)  (  1, 60, 74)
  0  0.5210E+05  0 -0.4552E+05  0 -0.6813E+05  0  0.8218E+05  0  0.1082E+06
   (  1, 59, 75)  (  1, 58, 76)  (  1, 58, 76)  (  1, 60, 74)  (  1, 60, 74)
  0 -0.8107E+05  0 -0.6526E+05  0 -0.7765E+05  0 -0.1172E+06  0 -0.1009E+06
   (  1, 59, 75)  (  1, 56, 79)  (  1, 60, 74)  (  1, 60, 74)  (  1, 60, 74)
  0 -0.9122E+05  0 -0.9260E+05  0  0.8744E+05  0  0.1013E+06  0  0.1535E+06
   (  1, 61, 73)  (  1, 61, 73)  (  1, 60, 74)  (  1, 60, 74)  (  1, 61, 73)
  0  0.2004E+06  0  0.1389E+06  0 -0.7692E+05  0 -0.2109E+06  0 -0.3340E+06
   (  1, 61, 73)  (  1, 61, 73)  (  1, 60, 74)  (  1, 61, 73)  (  1, 61, 73)
  1 -0.2383E+06  0  0.8014E+05  0  0.1112E+06  0  0.1937E+06  0  0.1603E+06
   (  1, 61, 73)  (  1, 58, 76)  (  1, 61, 73)  (  1, 61, 73)  (  1, 61, 73)
  0 -0.1008E+06  0  0.8142E+05  0 -0.8467E+05  0 -0.9158E+05  0 -0.9417E+05
   (  1, 58, 76)  (  1, 60, 74)  (  1, 61, 73)  (  1, 55, 79)  (  1, 60, 74)
  0 -0.1096E+06  0 -0.7621E+05  0 -0.5945E+05  0  0.7384E+05  0  0.1041E+06
   (  1, 60, 74)  (  1, 60, 74)  (  1, 56, 79)  (  1, 60, 74)  (  1, 60, 74)
  0  0.8107E+05  0 -0.6562E+05  0 -0.4468E+05  0 -0.5055E+05  0 -0.4790E+05
   (  1, 60, 74)  (  1, 58, 76)  (  1, 58, 76)  (  1, 60, 74)  (  1, 60, 74)
  0  0.6203E+05  0  0.6395E+05  0  0.3675E+05  0  0.2175E+05  0 -0.4683E+05
   (  1, 58, 76)  (  1, 58, 76)  (  1, 58, 76)  (  1, 60, 74)  (  1, 58, 76)
  0 -0.6384E+05  0 -0.4861E+05  0  -9512.      0  0.5429E+05  0  0.8952E+05
   (  1, 58, 76)  (  1, 58, 76)  (  1,107,119)  (  1, 58, 76)  (  1, 58, 76)
  1  0.5660E+05  0  -9744.      0 -0.4749E+05  0 -0.6454E+05  0 -0.4883E+05
   (  1, 58, 76)  (  1,107,119)  (  1, 58, 76)  (  1, 58, 76)  (  1, 58, 76)
  0 -0.2141E+05  0  0.3486E+05  0  0.6383E+05  0  0.6400E+05  0 -0.4627E+05
   (  1, 56, 77)  (  1, 58, 76)  (  1, 58, 76)  (  1, 58, 76)  (  1, 60, 74)
  0  0.4985E+05  0 -0.4424E+05  0 -0.6562E+05  0  0.7892E+05  0  0.1042E+06
   (  1, 59, 75)  (  1, 58, 76)  (  1, 58, 76)  (  1, 60, 74)  (  1, 60, 74)
  0 -0.7758E+05  0 -0.6294E+05  0 -0.7455E+05  0 -0.1120E+06  0 -0.9727E+05
   (  1, 59, 75)  (  1, 56, 79)  (  1, 60, 74)  (  1, 60, 74)  (  1, 60, 74)
  0 -0.8797E+05  0 -0.8840E+05  0  0.8331E+05  0  0.9774E+05  0  0.1486E+06
[...]
      -1.6151E+07 -1.6151E+07 -1.6151E+07 -1.6151E+07 -1.6151E+07 -1.6151E+07 -1.6151E+07 -1.6151E+07 -1.6151E+07 -1.6152E+07
      -1.6152E+07 -1.6152E+07 -1.6151E+07 -1.6151E+07 -1.6151E+07 -1.6151E+07 -1.6151E+07 -1.6151E+07 -1.6151E+07 -1.6151E+07
      -1.6151E+07 -1.6151E+07 -1.6151E+07 -1.6151E+07 -1.6151E+07 -1.6151E+07 -1.6151E+07 -1.6151E+07 -1.6151E+07 -1.6151E+07
      -1.6151E+07 -1.6151E+07 -1.6151E+07 -1.6151E+07 -1.6151E+07 -1.6150E+07 -1.6150E+07 -1.6150E+07 -1.6150E+07 -1.6150E+07
      -1.6150E+07 -1.6150E+07 -1.6150E+07 -1.6150E+07 -1.6150E+07
 200  -1.6153E+07 -1.6153E+07 -1.6153E+07 -1.6153E+07 -1.6153E+07 -1.6153E+07 -1.6153E+07 -1.6153E+07 -1.6153E+07 -1.6153E+07
      -1.6153E+07 -1.6153E+07 -1.6153E+07 -1.6153E+07 -1.6153E+07 -1.6153E+07 -1.6153E+07 -1.6153E+07 -1.6153E+07 -1.6153E+07
      -1.6153E+07 -1.6153E+07 -1.6153E+07 -1.6153E+07 -1.6153E+07 -1.6152E+07 -1.6152E+07 -1.6152E+07 -1.6152E+07 -1.6152E+07
      -1.6152E+07 -1.6152E+07 -1.6152E+07 -1.6152E+07 -1.6152E+07 -1.6152E+07 -1.6152E+07 -1.6152E+07 -1.6152E+07 -1.6152E+07
      -1.6152E+07 -1.6152E+07 -1.6152E+07 -1.6152E+07 -1.6152E+07 -1.6151E+07 -1.6151E+07 -1.6151E+07 -1.6151E+07 -1.6151E+07
      -1.6151E+07 -1.6151E+07 -1.6151E+07 -1.6151E+07 -1.6151E+07 -1.6151E+07 -1.6151E+07 -1.6151E+07 -1.6151E+07 -1.6151E+07
      -1.6151E+07 -1.6151E+07 -1.6151E+07 -1.6151E+07 -1.6150E+07 -1.6150E+07 -1.6150E+07 -1.6150E+07 -1.6150E+07 -1.6150E+07
      -1.6150E+07 -1.6150E+07 -1.6150E+07 -1.6150E+07 -1.6150E+07 -1.6150E+07 -1.6150E+07 -1.6150E+07 -1.6150E+07 -1.6150E+07
      -1.6150E+07 -1.6150E+07 -1.6150E+07 -1.6150E+07 -1.6150E+07 -1.6150E+07 -1.6150E+07 -1.6150E+07 -1.6150E+07 -1.6150E+07
      -1.6150E+07 -1.6150E+07 -1.6150E+07 -1.6150E+07 -1.6150E+07 -1.6150E+07 -1.6150E+07 -1.6150E+07 -1.6150E+07 -1.6150E+07
      -1.6150E+07 -1.6150E+07 -1.6150E+07 -1.6150E+07 -1.6150E+07 -1.6150E+07 -1.6150E+07 -1.6150E+07 -1.6150E+07 -1.6150E+07
      -1.6150E+07 -1.6150E+07 -1.6150E+07 -1.6150E+07 -1.6150E+07 -1.6150E+07 -1.6150E+07 -1.6150E+07 -1.6150E+07 -1.6150E+07
      -1.6150E+07 -1.6150E+07 -1.6150E+07 -1.6150E+07 -1.6150E+07 -1.6150E+07 -1.6150E+07 -1.6150E+07 -1.6150E+07 -1.6150E+07
      -1.6150E+07 -1.6150E+07 -1.6150E+07 -1.6150E+07 -1.6150E+07 -1.6150E+07 -1.6150E+07 -1.6150E+07 -1.6150E+07 -1.6150E+07
      -1.6150E+07 -1.6150E+07 -1.6150E+07 -1.6150E+07 -1.6150E+07 -1.6150E+07 -1.6150E+07 -1.6150E+07 -1.6150E+07 -1.6150E+07
      -1.6150E+07 -1.6150E+07 -1.6150E+07 -1.6150E+07 -1.6150E+07 -1.6150E+07 -1.6150E+07 -1.6150E+07 -1.6151E+07 -1.6151E+07
      -1.6151E+07 -1.6151E+07 -1.6151E+07 -1.6151E+07 -1.6151E+07 -1.6151E+07 -1.6151E+07 -1.6151E+07 -1.6151E+07 -1.6151E+07
      -1.6151E+07 -1.6151E+07 -1.6151E+07 -1.6151E+07 -1.6151E+07 -1.6151E+07 -1.6151E+07 -1.6151E+07 -1.6151E+07 -1.6151E+07
      -1.6151E+07 -1.6151E+07 -1.6151E+07 -1.6151E+07 -1.6151E+07 -1.6151E+07 -1.6151E+07 -1.6151E+07 -1.6151E+07 -1.6152E+07
      -1.6152E+07 -1.6152E+07 -1.6151E+07 -1.6151E+07 -1.6151E+07 -1.6151E+07 -1.6151E+07 -1.6151E+07 -1.6151E+07 -1.6151E+07
      -1.6151E+07 -1.6151E+07 -1.6151E+07 -1.6151E+07 -1.6151E+07 -1.6151E+07 -1.6151E+07 -1.6151E+07 -1.6151E+07 -1.6151E+07
      -1.6151E+07 -1.6151E+07 -1.6151E+07 -1.6151E+07 -1.6151E+07 -1.6150E+07 -1.6150E+07 -1.6150E+07 -1.6150E+07 -1.6150E+07
      -1.6150E+07 -1.6150E+07 -1.6150E+07 -1.6150E+07 -1.6150E+07
 201  -1.6153E+07 -1.6153E+07 -1.6153E+07 -1.6153E+07 -1.6153E+07 -1.6153E+07 -1.6153E+07 -1.6153E+07 -1.6153E+07 -1.6153E+07
      -1.6153E+07 -1.6153E+07 -1.6153E+07 -1.6153E+07 -1.6153E+07 -1.6153E+07 -1.6153E+07 -1.6153E+07 -1.6153E+07 -1.6153E+07
      -1.6153E+07 -1.6153E+07 -1.6153E+07 -1.6153E+07 -1.6152E+07 -1.6152E+07 -1.6152E+07 -1.6152E+07 -1.6152E+07 -1.6152E+07
      -1.6152E+07 -1.6152E+07 -1.6152E+07 -1.6152E+07 -1.6152E+07 -1.6152E+07 -1.6152E+07 -1.6152E+07 -1.6152E+07 -1.6152E+07
      -1.6152E+07 -1.6152E+07 -1.6152E+07 -1.6152E+07 -1.6152E+07 -1.6152E+07 -1.6151E+07 -1.6151E+07 -1.6151E+07 -1.6151E+07
      -1.6151E+07 -1.6151E+07 -1.6151E+07 -1.6151E+07 -1.6151E+07 -1.6151E+07 -1.6151E+07 -1.6151E+07 -1.6151E+07 -1.6151E+07
      -1.6151E+07 -1.6151E+07 -1.6151E+07 -1.6150E+07 -1.6150E+07 -1.6150E+07 -1.6150E+07 -1.6150E+07 -1.6150E+07 -1.6150E+07
      -1.6150E+07 -1.6150E+07 -1.6150E+07 -1.6150E+07 -1.6150E+07 -1.6150E+07 -1.6150E+07 -1.6150E+07 -1.6150E+07 -1.6150E+07
      -1.6150E+07 -1.6150E+07 -1.6150E+07 -1.6150E+07 -1.6150E+07 -1.6150E+07 -1.6150E+07 -1.6150E+07 -1.6150E+07 -1.6150E+07
      -1.6150E+07 -1.6150E+07 -1.6150E+07 -1.6150E+07 -1.6150E+07 -1.6150E+07 -1.6150E+07 -1.6150E+07 -1.6150E+07 -1.6150E+07
      -1.6150E+07 -1.6150E+07 -1.6150E+07 -1.6150E+07 -1.6150E+07 -1.6150E+07 -1.6150E+07 -1.6150E+07 -1.6150E+07 -1.6150E+07
      -1.6150E+07 -1.6150E+07 -1.6150E+07 -1.6150E+07 -1.6150E+07 -1.6150E+07 -1.6150E+07 -1.6150E+07 -1.6150E+07 -1.6150E+07
      -1.6150E+07 -1.6150E+07 -1.6150E+07 -1.6150E+07 -1.6150E+07 -1.6150E+07 -1.6150E+07 -1.6150E+07 -1.6150E+07 -1.6150E+07
      -1.6150E+07 -1.6150E+07 -1.6150E+07 -1.6150E+07 -1.6150E+07 -1.6150E+07 -1.6150E+07 -1.6150E+07 -1.6150E+07 -1.6150E+07
      -1.6150E+07 -1.6150E+07 -1.6150E+07 -1.6150E+07 -1.6150E+07 -1.6150E+07 -1.6150E+07 -1.6150E+07 -1.6150E+07 -1.6150E+07
      -1.6150E+07 -1.6150E+07 -1.6150E+07 -1.6150E+07 -1.6150E+07 -1.6150E+07 -1.6150E+07 -1.6150E+07 -1.6151E+07 -1.6151E+07
      -1.6151E+07 -1.6151E+07 -1.6151E+07 -1.6151E+07 -1.6151E+07 -1.6151E+07 -1.6151E+07 -1.6151E+07 -1.6151E+07 -1.6151E+07
      -1.6151E+07 -1.6151E+07 -1.6151E+07 -1.6151E+07 -1.6151E+07 -1.6151E+07 -1.6151E+07 -1.6151E+07 -1.6151E+07 -1.6151E+07
      -1.6151E+07 -1.6151E+07 -1.6151E+07 -1.6151E+07 -1.6151E+07 -1.6151E+07 -1.6151E+07 -1.6151E+07 -1.6151E+07 -1.6151E+07
      -1.6151E+07 -1.6151E+07 -1.6151E+07 -1.6151E+07 -1.6151E+07 -1.6151E+07 -1.6151E+07 -1.6151E+07 -1.6151E+07 -1.6151E+07
      -1.6151E+07 -1.6151E+07 -1.6151E+07 -1.6151E+07 -1.6151E+07 -1.6151E+07 -1.6151E+07 -1.6151E+07 -1.6151E+07 -1.6151E+07
      -1.6151E+07 -1.6151E+07 -1.6151E+07 -1.6151E+07 -1.6150E+07 -1.6150E+07 -1.6150E+07 -1.6150E+07 -1.6150E+07 -1.6150E+07
      -1.6150E+07 -1.6150E+07 -1.6150E+07 -1.6150E+07 -1.6150E+07
 202  -1.6153E+07 -1.6153E+07 -1.6153E+07 -1.6153E+07 -1.6153E+07 -1.6153E+07 -1.6153E+07 -1.6153E+07 -1.6153E+07 -1.6153E+07
      -1.6153E+07 -1.6153E+07 -1.6153E+07 -1.6153E+07 -1.6153E+07 -1.6153E+07 -1.6153E+07 -1.6153E+07 -1.6153E+07 -1.6153E+07
      -1.6153E+07 -1.6153E+07 -1.6153E+07 -1.6153E+07 -1.6152E+07 -1.6152E+07 -1.6152E+07 -1.6152E+07 -1.6152E+07 -1.6152E+07
      -1.6152E+07 -1.6152E+07 -1.6152E+07 -1.6152E+07 -1.6152E+07 -1.6152E+07 -1.6152E+07 -1.6152E+07 -1.6152E+07 -1.6152E+07
      -1.6152E+07 -1.6152E+07 -1.6152E+07 -1.6152E+07 -1.6152E+07 -1.6152E+07 -1.6151E+07 -1.6151E+07 -1.6151E+07 -1.6151E+07
      -1.6151E+07 -1.6151E+07 -1.6151E+07 -1.6151E+07 -1.6151E+07 -1.6151E+07 -1.6151E+07 -1.6151E+07 -1.6151E+07 -1.6151E+07
      -1.6151E+07 -1.6151E+07 -1.6150E+07 -1.6150E+07 -1.6150E+07 -1.6150E+07 -1.6150E+07 -1.6150E+07 -1.6150E+07 -1.6150E+07
      -1.6150E+07 -1.6150E+07 -1.6150E+07 -1.6150E+07 -1.6150E+07 -1.6150E+07 -1.6150E+07 -1.6150E+07 -1.6150E+07 -1.6150E+07
      -1.6150E+07 -1.6150E+07 -1.6150E+07 -1.6150E+07 -1.6150E+07 -1.6150E+07 -1.6150E+07 -1.6150E+07 -1.6150E+07 -1.6150E+07
      -1.6150E+07 -1.6150E+07 -1.6150E+07 -1.6150E+07 -1.6150E+07 -1.6150E+07 -1.6150E+07 -1.6150E+07 -1.6150E+07 -1.6150E+07
      -1.6150E+07 -1.6150E+07 -1.6150E+07 -1.6150E+07 -1.6150E+07 -1.6150E+07 -1.6150E+07 -1.6150E+07 -1.6150E+07 -1.6150E+07
      -1.6150E+07 -1.6150E+07 -1.6150E+07 -1.6150E+07 -1.6150E+07 -1.6150E+07 -1.6150E+07 -1.6150E+07 -1.6150E+07 -1.6150E+07
      -1.6150E+07 -1.6150E+07 -1.6150E+07 -1.6150E+07 -1.6150E+07 -1.6150E+07 -1.6150E+07 -1.6150E+07 -1.6150E+07 -1.6150E+07
      -1.6150E+07 -1.6150E+07 -1.6150E+07 -1.6150E+07 -1.6150E+07 -1.6150E+07 -1.6150E+07 -1.6150E+07 -1.6150E+07 -1.6150E+07
      -1.6150E+07 -1.6150E+07 -1.6150E+07 -1.6150E+07 -1.6150E+07 -1.6150E+07 -1.6150E+07 -1.6150E+07 -1.6150E+07 -1.6150E+07
      -1.6150E+07 -1.6150E+07 -1.6150E+07 -1.6150E+07 -1.6150E+07 -1.6150E+07 -1.6150E+07 -1.6150E+07 -1.6151E+07 -1.6151E+07
      -1.6151E+07 -1.6151E+07 -1.6151E+07 -1.6151E+07 -1.6151E+07 -1.6151E+07 -1.6151E+07 -1.6151E+07 -1.6151E+07 -1.6151E+07
      -1.6151E+07 -1.6151E+07 -1.6151E+07 -1.6151E+07 -1.6151E+07 -1.6151E+07 -1.6151E+07 -1.6151E+07 -1.6151E+07 -1.6151E+07
      -1.6151E+07 -1.6151E+07 -1.6151E+07 -1.6151E+07 -1.6151E+07 -1.6151E+07 -1.6151E+07 -1.6151E+07 -1.6151E+07 -1.6151E+07
      -1.6151E+07 -1.6151E+07 -1.6151E+07 -1.6151E+07 -1.6151E+07 -1.6151E+07 -1.6151E+07 -1.6151E+07 -1.6151E+07 -1.6151E+07
      -1.6151E+07 -1.6151E+07 -1.6151E+07 -1.6151E+07 -1.6151E+07 -1.6151E+07 -1.6151E+07 -1.6151E+07 -1.6151E+07 -1.6151E+07
      -1.6151E+07 -1.6151E+07 -1.6151E+07 -1.6150E+07 -1.6150E+07 -1.6150E+07 -1.6150E+07 -1.6150E+07 -1.6150E+07 -1.6150E+07
      -1.6150E+07 -1.6150E+07 -1.6150E+07 -1.6150E+07 -1.6150E+07
 203  -1.6153E+07 -1.6153E+07 -1.6153E+07 -1.6153E+07 -1.6153E+07 -1.6153E+07 -1.6153E+07 -1.6153E+07 -1.6153E+07 -1.6153E+07
      -1.6153E+07 -1.6153E+07 -1.6153E+07 -1.6153E+07 -1.6153E+07 -1.6153E+07 -1.6153E+07 -1.6153E+07 -1.6153E+07 -1.6153E+07
      -1.6153E+07 -1.6153E+07 -1.6153E+07 -1.6153E+07 -1.6153E+07 -1.6152E+07 -1.6152E+07 -1.6152E+07 -1.6152E+07 -1.6152E+07
      -1.6152E+07 -1.6152E+07 -1.6152E+07 -1.6152E+07 -1.6152E+07 -1.6152E+07 -1.6152E+07 -1.6152E+07 -1.6152E+07 -1.6152E+07
      -1.6152E+07 -1.6152E+07 -1.6152E+07 -1.6152E+07 -1.6152E+07 -1.6151E+07 -1.6151E+07 -1.6151E+07 -1.6151E+07 -1.6151E+07
      -1.6151E+07 -1.6151E+07 -1.6151E+07 -1.6151E+07 -1.6151E+07 -1.6151E+07 -1.6151E+07 -1.6151E+07 -1.6151E+07 -1.6151E+07
      -1.6151E+07 -1.6151E+07 -1.6150E+07 -1.6150E+07 -1.6150E+07 -1.6150E+07 -1.6150E+07 -1.6150E+07 -1.6150E+07 -1.6150E+07
      -1.6150E+07 -1.6150E+07 -1.6150E+07 -1.6150E+07 -1.6150E+07 -1.6150E+07 -1.6150E+07 -1.6150E+07 -1.6150E+07 -1.6150E+07
      -1.6150E+07 -1.6150E+07 -1.6150E+07 -1.6150E+07 -1.6150E+07 -1.6150E+07 -1.6150E+07 -1.6150E+07 -1.6150E+07 -1.6150E+07
      -1.6150E+07 -1.6150E+07 -1.6150E+07 -1.6150E+07 -1.6150E+07 -1.6150E+07 -1.6150E+07 -1.6150E+07 -1.6150E+07 -1.6150E+07
      -1.6150E+07 -1.6150E+07 -1.6150E+07 -1.6150E+07 -1.6150E+07 -1.6150E+07 -1.6150E+07 -1.6150E+07 -1.6150E+07 -1.6150E+07
      -1.6150E+07 -1.6150E+07 -1.6150E+07 -1.6150E+07 -1.6150E+07 -1.6150E+07 -1.6150E+07 -1.6150E+07 -1.6150E+07 -1.6150E+07
      -1.6150E+07 -1.6150E+07 -1.6150E+07 -1.6150E+07 -1.6150E+07 -1.6150E+07 -1.6150E+07 -1.6150E+07 -1.6150E+07 -1.6150E+07
      -1.6150E+07 -1.6150E+07 -1.6150E+07 -1.6150E+07 -1.6150E+07 -1.6150E+07 -1.6150E+07 -1.6150E+07 -1.6150E+07 -1.6150E+07
      -1.6150E+07 -1.6150E+07 -1.6150E+07 -1.6150E+07 -1.6150E+07 -1.6150E+07 -1.6150E+07 -1.6150E+07 -1.6150E+07 -1.6150E+07
      -1.6150E+07 -1.6150E+07 -1.6150E+07 -1.6150E+07 -1.6150E+07 -1.6150E+07 -1.6150E+07 -1.6150E+07 -1.6151E+07 -1.6151E+07
      -1.6151E+07 -1.6151E+07 -1.6151E+07 -1.6151E+07 -1.6151E+07 -1.6151E+07 -1.6151E+07 -1.6151E+07 -1.6151E+07 -1.6151E+07
      -1.6151E+07 -1.6151E+07 -1.6151E+07 -1.6151E+07 -1.6151E+07 -1.6151E+07 -1.6151E+07 -1.6151E+07 -1.6151E+07 -1.6151E+07
      -1.6151E+07 -1.6151E+07 -1.6151E+07 -1.6151E+07 -1.6151E+07 -1.6151E+07 -1.6151E+07 -1.6151E+07 -1.6151E+07 -1.6151E+07
      -1.6151E+07 -1.6151E+07 -1.6151E+07 -1.6151E+07 -1.6151E+07 -1.6151E+07 -1.6151E+07 -1.6151E+07 -1.6151E+07 -1.6151E+07
      -1.6151E+07 -1.6151E+07 -1.6151E+07 -1.6151E+07 -1.6151E+07 -1.6151E+07 -1.6151E+07 -1.6151E+07 -1.6151E+07 -1.6151E+07
      -1.6151E+07 -1.6151E+07 -1.6151E+07 -1.6150E+07 -1.6150E+07 -1.6150E+07 -1.6150E+07 -1.6150E+07 -1.6150E+07 -1.6150E+07
      -1.6150E+07 -1.6150E+07 -1.6150E+07 -1.6150E+07 -1.6150E+07
 204  -1.6153E+07 -1.6153E+07 -1.6153E+07 -1.6153E+07 -1.6153E+07 -1.6153E+07 -1.6153E+07 -1.6153E+07 -1.6153E+07 -1.6153E+07
      -1.6153E+07 -1.6153E+07 -1.6153E+07 -1.6153E+07 -1.6153E+07 -1.6153E+07 -1.6153E+07 -1.6153E+07 -1.6153E+07 -1.6153E+07
      -1.6153E+07 -1.6153E+07 -1.6153E+07 -1.6153E+07 -1.6153E+07 -1.6152E+07 -1.6152E+07 -1.6152E+07 -1.6152E+07 -1.6152E+07
      -1.6152E+07 -1.6152E+07 -1.6152E+07 -1.6152E+07 -1.6152E+07 -1.6152E+07 -1.6152E+07 -1.6152E+07 -1.6152E+07 -1.6152E+07
      -1.6152E+07 -1.6152E+07 -1.6152E+07 -1.6152E+07 -1.6152E+07 -1.6151E+07 -1.6151E+07 -1.6151E+07 -1.6151E+07 -1.6151E+07
      -1.6151E+07 -1.6151E+07 -1.6151E+07 -1.6151E+07 -1.6151E+07 -1.6151E+07 -1.6151E+07 -1.6151E+07 -1.6151E+07 -1.6151E+07
      -1.6151E+07 -1.6151E+07 -1.6150E+07 -1.6150E+07 -1.6150E+07 -1.6150E+07 -1.6150E+07 -1.6150E+07 -1.6150E+07 -1.6150E+07
      -1.6150E+07 -1.6150E+07 -1.6150E+07 -1.6150E+07 -1.6150E+07 -1.6150E+07 -1.6150E+07 -1.6150E+07 -1.6150E+07 -1.6150E+07
      -1.6150E+07 -1.6150E+07 -1.6150E+07 -1.6150E+07 -1.6150E+07 -1.6150E+07 -1.6150E+07 -1.6150E+07 -1.6150E+07 -1.6150E+07
      -1.6150E+07 -1.6150E+07 -1.6150E+07 -1.6150E+07 -1.6150E+07 -1.6150E+07 -1.6150E+07 -1.6150E+07 -1.6150E+07 -1.6150E+07
      -1.6150E+07 -1.6150E+07 -1.6150E+07 -1.6150E+07 -1.6150E+07 -1.6150E+07 -1.6150E+07 -1.6150E+07 -1.6150E+07 -1.6150E+07
      -1.6150E+07 -1.6150E+07 -1.6150E+07 -1.6150E+07 -1.6150E+07 -1.6150E+07 -1.6150E+07 -1.6150E+07 -1.6150E+07 -1.6150E+07
      -1.6150E+07 -1.6150E+07 -1.6150E+07 -1.6150E+07 -1.6150E+07 -1.6150E+07 -1.6150E+07 -1.6150E+07 -1.6150E+07 -1.6150E+07
      -1.6150E+07 -1.6150E+07 -1.6150E+07 -1.6150E+07 -1.6150E+07 -1.6150E+07 -1.6150E+07 -1.6150E+07 -1.6150E+07 -1.6150E+07
      -1.6150E+07 -1.6150E+07 -1.6150E+07 -1.6150E+07 -1.6150E+07 -1.6150E+07 -1.6150E+07 -1.6150E+07 -1.6150E+07 -1.6150E+07
      -1.6150E+07 -1.6150E+07 -1.6150E+07 -1.6150E+07 -1.6150E+07 -1.6150E+07 -1.6150E+07 -1.6150E+07 -1.6151E+07 -1.6151E+07
      -1.6151E+07 -1.6151E+07 -1.6151E+07 -1.6151E+07 -1.6151E+07 -1.6151E+07 -1.6151E+07 -1.6151E+07 -1.6151E+07 -1.6151E+07
      -1.6151E+07 -1.6151E+07 -1.6151E+07 -1.6151E+07 -1.6151E+07 -1.6151E+07 -1.6151E+07 -1.6151E+07 -1.6151E+07 -1.6151E+07
      -1.6151E+07 -1.6151E+07 -1.6151E+07 -1.6151E+07 -1.6151E+07 -1.6151E+07 -1.6151E+07 -1.6151E+07 -1.6151E+07 -1.6151E+07
      -1.6151E+07 -1.6151E+07 -1.6151E+07 -1.6151E+07 -1.6151E+07 -1.6151E+07 -1.6151E+07 -1.6151E+07 -1.6151E+07 -1.6151E+07
      -1.6151E+07 -1.6151E+07 -1.6151E+07 -1.6151E+07 -1.6151E+07 -1.6151E+07 -1.6151E+07 -1.6151E+07 -1.6151E+07 -1.6151E+07
      -1.6150E+07 -1.6150E+07 -1.6150E+07 -1.6150E+07 -1.6150E+07 -1.6150E+07 -1.6150E+07 -1.6150E+07 -1.6150E+07 -1.6150E+07
      -1.6150E+07 -1.6150E+07 -1.6150E+07 -1.6150E+07 -1.6150E+07
 205  -1.6153E+07 -1.6153E+07 -1.6153E+07 -1.6153E+07 -1.6153E+07 -1.6153E+07 -1.6153E+07 -1.6153E+07 -1.6153E+07 -1.6153E+07
      -1.6153E+07 -1.6153E+07 -1.6153E+07 -1.6153E+07 -1.6153E+07 -1.6153E+07 -1.6153E+07 -1.6153E+07 -1.6153E+07 -1.6153E+07
      -1.6153E+07 -1.6153E+07 -1.6153E+07 -1.6153E+07 -1.6153E+07 -1.6152E+07 -1.6152E+07 -1.6152E+07 -1.6152E+07 -1.6152E+07
      -1.6152E+07 -1.6152E+07 -1.6152E+07 -1.6152E+07 -1.6152E+07 -1.6152E+07 -1.6152E+07 -1.6152E+07 -1.6152E+07 -1.6152E+07
      -1.6152E+07 -1.6152E+07 -1.6152E+07 -1.6152E+07 -1.6151E+07 -1.6151E+07 -1.6151E+07 -1.6151E+07 -1.6151E+07 -1.6151E+07
      -1.6151E+07 -1.6151E+07 -1.6151E+07 -1.6151E+07 -1.6151E+07 -1.6151E+07 -1.6151E+07 -1.6151E+07 -1.6151E+07 -1.6151E+07
      -1.6151E+07 -1.6151E+07 -1.6150E+07 -1.6150E+07 -1.6150E+07 -1.6150E+07 -1.6150E+07 -1.6150E+07 -1.6150E+07 -1.6150E+07
      -1.6150E+07 -1.6150E+07 -1.6150E+07 -1.6150E+07 -1.6150E+07 -1.6150E+07 -1.6150E+07 -1.6150E+07 -1.6150E+07 -1.6150E+07
      -1.6150E+07 -1.6150E+07 -1.6150E+07 -1.6150E+07 -1.6150E+07 -1.6150E+07 -1.6150E+07 -1.6150E+07 -1.6150E+07 -1.6150E+07
      -1.6150E+07 -1.6150E+07 -1.6150E+07 -1.6150E+07 -1.6150E+07 -1.6150E+07 -1.6150E+07 -1.6150E+07 -1.6150E+07 -1.6150E+07
      -1.6150E+07 -1.6150E+07 -1.6150E+07 -1.6150E+07 -1.6150E+07 -1.6150E+07 -1.6150E+07 -1.6150E+07 -1.6150E+07 -1.6150E+07
      -1.6150E+07 -1.6150E+07 -1.6150E+07 -1.6150E+07 -1.6150E+07 -1.6150E+07 -1.6150E+07 -1.6150E+07 -1.6150E+07 -1.6150E+07
      -1.6150E+07 -1.6150E+07 -1.6150E+07 -1.6150E+07 -1.6150E+07 -1.6150E+07 -1.6150E+07 -1.6150E+07 -1.6150E+07 -1.6150E+07
      -1.6150E+07 -1.6150E+07 -1.6150E+07 -1.6150E+07 -1.6150E+07 -1.6150E+07 -1.6150E+07 -1.6150E+07 -1.6150E+07 -1.6150E+07
      -1.6150E+07 -1.6150E+07 -1.6150E+07 -1.6150E+07 -1.6150E+07 -1.6150E+07 -1.6150E+07 -1.6150E+07 -1.6150E+07 -1.6150E+07
      -1.6150E+07 -1.6150E+07 -1.6150E+07 -1.6150E+07 -1.6150E+07 -1.6150E+07 -1.6150E+07 -1.6151E+07 -1.6151E+07 -1.6151E+07
      -1.6151E+07 -1.6151E+07 -1.6151E+07 -1.6151E+07 -1.6151E+07 -1.6151E+07 -1.6151E+07 -1.6151E+07 -1.6151E+07 -1.6151E+07
      -1.6151E+07 -1.6151E+07 -1.6151E+07 -1.6151E+07 -1.6151E+07 -1.6151E+07 -1.6151E+07 -1.6151E+07 -1.6151E+07 -1.6151E+07
      -1.6151E+07 -1.6151E+07 -1.6151E+07 -1.6151E+07 -1.6151E+07 -1.6151E+07 -1.6151E+07 -1.6151E+07 -1.6151E+07 -1.6151E+07
      -1.6151E+07 -1.6151E+07 -1.6151E+07 -1.6151E+07 -1.6151E+07 -1.6151E+07 -1.6151E+07 -1.6151E+07 -1.6151E+07 -1.6151E+07
      -1.6151E+07 -1.6151E+07 -1.6151E+07 -1.6151E+07 -1.6151E+07 -1.6151E+07 -1.6151E+07 -1.6151E+07 -1.6150E+07 -1.6150E+07
      -1.6150E+07 -1.6150E+07 -1.6150E+07 -1.6150E+07 -1.6150E+07 -1.6150E+07 -1.6150E+07 -1.6150E+07 -1.6150E+07 -1.6150E+07
      -1.6150E+07 -1.6150E+07 -1.6150E+07 -1.6150E+07 -1.6150E+07

 HEAD WILL BE SAVED ON UNIT   51 AT END OF TIME STEP    1, STRESS PERIOD    1
1
  VOLUMETRIC BUDGET FOR ENTIRE MODEL AT END OF TIME STEP    1, STRESS PERIOD   1
  ------------------------------------------------------------------------------

     CUMULATIVE VOLUMES      L**3       RATES FOR THIS TIME STEP      L**3/T
     ------------------                 ------------------------

           IN:                                      IN:
           ---                                      ---
             STORAGE =           0.0000               STORAGE =           0.0000
       CONSTANT HEAD =           0.0000         CONSTANT HEAD =           0.0000
               WELLS =           0.0000                 WELLS =           0.0000

            TOTAL IN =           0.0000              TOTAL IN =           0.0000

          OUT:                                     OUT:
          ----                                     ----
             STORAGE =           0.0000               STORAGE =           0.0000
       CONSTANT HEAD =           0.0000         CONSTANT HEAD =           0.0000
               WELLS =     2877294.0000                 WELLS =     2877294.0000

           TOTAL OUT =     2877294.0000             TOTAL OUT =     2877294.0000

            IN - OUT =    -2877294.0000              IN - OUT =    -2877294.0000

 PERCENT DISCREPANCY =        -200.00     PERCENT DISCREPANCY =        -200.00






         TIME SUMMARY AT END OF TIME STEP    1 IN STRESS PERIOD    1
                    SECONDS     MINUTES      HOURS       DAYS        YEARS
                    -----------------------------------------------------------
   TIME STEP LENGTH  86400.      1440.0      24.000      1.0000     2.73785E-03
 STRESS PERIOD TIME  86400.      1440.0      24.000      1.0000     2.73785E-03
         TOTAL TIME  86400.      1440.0      24.000      1.0000     2.73785E-03
1
 FAILURE TO MEET SOLVER CONVERGENCE CRITERIA
 BUDGET PERCENT DISCREPANCY IS -200.0000
 STOPPING SIMULATION

 Run end date and time (yyyy/mm/dd hh:mm:ss): 2022/04/07 17:08:35
 Elapsed run time:  2.916 Seconds

