                                  MODFLOW-2005     
      U.S. GEOLOGICAL SURVEY MODULAR FINITE-DIFFERENCE GROUND-WATER FLOW MODEL
                            VERSION 1.12.00 2/3/2017

 LIST FILE: my_model.list
                         UNIT    2

 OPENING my_model.dis
 FILE TYPE:DIS   UNIT   11   STATUS:OLD    
 FORMAT:FORMATTED              ACCESS:SEQUENTIAL          

 OPENING my_model.bas
 FILE TYPE:BAS6   UNIT   13   STATUS:OLD    
 FORMAT:FORMATTED              ACCESS:SEQUENTIAL          

 OPENING my_model.riv
 FILE TYPE:RIV   UNIT   18   STATUS:OLD    
 FORMAT:FORMATTED              ACCESS:SEQUENTIAL          

 OPENING my_model.lpf
 FILE TYPE:LPF   UNIT   15   STATUS:OLD    
 FORMAT:FORMATTED              ACCESS:SEQUENTIAL          

 OPENING my_model.oc
 FILE TYPE:OC   UNIT   14   STATUS:OLD    
 FORMAT:FORMATTED              ACCESS:SEQUENTIAL          

 OPENING my_model.pcg
 FILE TYPE:PCG   UNIT   27   STATUS:OLD    
 FORMAT:FORMATTED              ACCESS:SEQUENTIAL          

 OPENING my_model.cbc
 FILE TYPE:DATA(BINARY)   UNIT    1   STATUS:REPLACE
 FORMAT:BINARY                 ACCESS:SEQUENTIAL          

 OPENING my_model.hds
 FILE TYPE:DATA(BINARY)   UNIT   51   STATUS:REPLACE
 FORMAT:BINARY                 ACCESS:SEQUENTIAL          

 BAS -- BASIC PACKAGE, VERSION 7, 5/2/2005 INPUT READ FROM UNIT   13
 
 MODFLOW was compiled using mixed precision
 Precision of REAL variables:           6
 Precision of DOUBLE PRECISION variables:          15

 DISCRETIZATION INPUT DATA READ FROM UNIT   11
 # DIS package for  MODFLOW-2005, generated by Flopy.
    1 LAYERS       205 ROWS       225 COLUMNS
    1 STRESS PERIOD(S) IN SIMULATION
 MODEL TIME UNIT IS DAYS
 MODEL LENGTH UNIT IS METERS
  Confining bed flag for each layer:
   0

                     DELR =   625.000    

                     DELC =   625.000    

 TOP ELEVATION OF LAYER 1 =   0.00000    

   MODEL LAYER BOTTOM EL. =  -50.0000     FOR LAYER   1


 STRESS PERIOD     LENGTH       TIME STEPS     MULTIPLIER FOR DELT    SS FLAG
 ----------------------------------------------------------------------------
        1         1.000000          1                    1.000         SS

 STEADY-STATE SIMULATION



 
 # BAS6 package for  MODFLOW-2005, generated by Flopy.                           
 THE FREE FORMAT OPTION HAS BEEN SELECTED



                     BOUNDARY ARRAY FOR LAYER   1
 READING ON UNIT   13 WITH FORMAT: (225I10)            

 AQUIFER HEAD WILL BE SET TO  -999.99     AT ALL NO-FLOW NODES (IBOUND=0).



                       INITIAL HEAD FOR LAYER   1
 READING ON UNIT   13 WITH FORMAT: (225E15.6)          
 # OC package for  MODFLOW-2005, generated by Flopy.

 OUTPUT CONTROL IS SPECIFIED ONLY AT TIME STEPS FOR WHICH OUTPUT IS DESIRED
 COMPACT CELL-BY-CELL BUDGET FILES WILL BE WRITTEN
 AUXILIARY DATA WILL BE SAVED IN CELL-BY-CELL BUDGET FILES
 HEAD PRINT FORMAT CODE IS   0    DRAWDOWN PRINT FORMAT CODE IS   0
 HEADS WILL BE SAVED ON UNIT   51    DRAWDOWNS WILL BE SAVED ON UNIT    0

 LPF -- LAYER-PROPERTY FLOW PACKAGE, VERSION 7, 5/2/2005
         INPUT READ FROM UNIT   15
 # LPF package for  MODFLOW-2005, generated by Flopy.
 CELL-BY-CELL FLOWS WILL BE SAVED ON UNIT    1
 HEAD AT CELLS THAT CONVERT TO DRY= -1.00000E+30
 No named parameters

   LAYER FLAGS:
 LAYER       LAYTYP        LAYAVG         CHANI        LAYVKA        LAYWET
 ---------------------------------------------------------------------------
    1             0             0     1.000E+00             0             0

   INTERPRETATION OF LAYER FLAGS:
                        INTERBLOCK     HORIZONTAL    DATA IN
         LAYER TYPE   TRANSMISSIVITY   ANISOTROPY   ARRAY VKA   WETTABILITY
 LAYER      (LAYTYP)      (LAYAVG)       (CHANI)      (LAYVKA)      (LAYWET)
 ---------------------------------------------------------------------------
    1      CONFINED      HARMONIC     1.000E+00    VERTICAL K  NON-WETTABLE

 WETTING CAPABILITY IS NOT ACTIVE IN ANY LAYER



              HYD. COND. ALONG ROWS FOR LAYER   1
 READING ON UNIT   15 WITH FORMAT: (225E15.6)          



                VERTICAL HYD. COND. FOR LAYER   1
 READING ON UNIT   15 WITH FORMAT: (225E15.6)          

 RIV -- RIVER PACKAGE, VERSION 7, 5/2/2005 INPUT READ FROM UNIT   18
 # RIV package for  MODFLOW-2005, generated by Flopy.
 No named parameters
 MAXIMUM OF   3707 ACTIVE RIVER REACHES AT ONE TIME


     0 River parameters

 PCG -- CONJUGATE-GRADIENT SOLUTION PACKAGE, VERSION 7, 5/2/2005
 # PCG package for  MODFLOW-2005, generated by Flopy.
 MAXIMUM OF     50 CALLS OF SOLUTION ROUTINE
 MAXIMUM OF     30 INTERNAL ITERATIONS PER CALL TO SOLUTION ROUTINE
 MATRIX PRECONDITIONING TYPE :    1



                                    SOLUTION BY THE CONJUGATE-GRADIENT METHOD
                                   -------------------------------------------
                    MAXIMUM NUMBER OF CALLS TO PCG ROUTINE =       50
                        MAXIMUM ITERATIONS PER CALL TO PCG =       30
                               MATRIX PRECONDITIONING TYPE =        1
        RELAXATION FACTOR (ONLY USED WITH PRECOND. TYPE 1) =    0.10000E+01
 PARAMETER OF POLYNOMIAL PRECOND. = 2 (2) OR IS CALCULATED :        0
                         HEAD CHANGE CRITERION FOR CLOSURE =    0.10000E-04
                     RESIDUAL CHANGE CRITERION FOR CLOSURE =    0.10000E-04
            PCG HEAD AND RESIDUAL CHANGE PRINTOUT INTERVAL =      999
     PRINTING FROM SOLVER IS LIMITED(1) OR SUPPRESSED (>1) =        3
                            STEADY-STATE DAMPING PARAMETER =    0.10000E+01
                               TRANSIENT DAMPING PARAMETER =    0.10000E+01
1
                            STRESS PERIOD NO.    1, LENGTH =   1.000000    
                            -----------------------------------------------

                              NUMBER OF TIME STEPS =     1

                               MULTIPLIER FOR DELT =     1.000

                            INITIAL TIME STEP SIZE =   1.000000    

 REACH NO.  LAYER   ROW   COL     STAGE      CONDUCTANCE     BOTTOM EL.         
 -------------------------------------------------------------------------------
      1      1     32    224       742.6          0.1743E+05       739.6    
      2      1     31    224       742.6          0.2656E+05       739.6    
      3      1     30    224       742.6          0.2892E+05       739.6    
      4      1     29    224       742.6          0.2451E+05       739.6    
      5      1     28    224       742.6          0.1944E+05       739.6    
      6      1     33    225       742.6          0.2319E+05       739.6    
      7      1     32    225       742.6          0.2683E+05       739.6    
      8      1     31    225       742.6          0.2188E+05       739.6    
      9      1     30    225       741.0          0.2994E+05       738.0    
     10      1     29    225       740.0          0.2994E+05       737.0    
     11      1     28    225       742.0          0.2809E+05       739.0    
     12      1     27    225       742.6          0.2596E+05       739.6    
     13      1     26    225       742.2          0.2764E+05       739.2    
     14      1     25    225       742.7          0.2742E+05       739.7    
     15      1     24    225       744.0          0.2914E+05       741.0    
     16      1    195    225       765.0           177.0           764.0    
     17      1    194    225       764.6           983.0           763.6    
     18      1    193    225       764.6           556.8           763.6    
     19      1     94    140       848.3          0.1770E+05       845.3    
     20      1     98    148       820.7          0.2064E+05       817.7    
     21      1    100    149       819.0          0.1735E+05       816.0    
     22      1    103    161       809.0          0.1959E+05       806.0    
     23      1    104    148       810.0           489.2           809.0    
     24      1     99    148       820.0           232.0           819.0    
     25      1    103    149       810.0           182.1           809.0    
     26      1    109    168       778.0           696.4           777.0    
     27      1    109    169       778.0           762.2           777.0    
     28      1    108    147       804.6           601.2           803.6    
     29      1    107    147       806.3           532.2           805.3    
     30      1    106    147       806.4           224.2           805.4    
     31      1    109    148       800.4           538.9           799.4    
     32      1    108    148       804.6           97.66           803.6    
     33      1    106    148       806.4           363.0           805.4    
     34      1    105    148       807.8           529.5           806.8    
     35      1    103    148       812.0           314.8           811.0    
     36      1    102    148       812.9           515.2           811.9    
     37      1    101    148       813.6           499.7           812.6    
     38      1    100    148       816.3           381.6           815.3    
     39      1    109    149       800.4           147.7           799.4    
     40      1     99    149       820.7           86.85           819.7    
     41      1     98    149       820.7           283.4           819.7    
     42      1     97    149       820.7           180.0           819.7    
     43      1     97    150       820.7           136.2           819.7    
     44      1     96    150       820.7           315.0           819.7    
     45      1     95    150       820.7           69.60           819.7    
     46      1    111    151       797.3           490.5           796.3    
     47      1    111    152       796.0           493.3           795.0    
     48      1    111    153       794.8           495.7           793.8    
     49      1    111    154       794.7           496.6           793.7    
     50      1    111    155       791.2           542.5           790.2    
     51      1    111    156       790.0           278.3           789.0    
     52      1    110    156       790.0           282.5           789.0    
     53      1    110    157       790.0           512.6           789.0    
     54      1    110    158       788.8           548.3           787.8    
     55      1    111    159       787.0           501.2           786.0    
     56      1    110    159       789.2           94.67           788.2    
     57      1    111    160       786.1           512.5           785.1    
     58      1    111    161       784.8           550.1           783.8    
     59      1    118    162       794.8           274.3           793.8    
     60      1    117    162       794.8           150.8           793.8    
     61      1    112    162       784.3           224.8           783.3    
     62      1    111    162       784.4           306.2           783.4    
     63      1    117    163       794.8           315.3           793.8    
     64      1    112    163       783.6           495.7           782.6    
     65      1    117    164       792.6           357.8           791.6    
     66      1    112    164       783.6           484.8           782.6    
     67      1    117    165       789.8           234.9           788.8    
     68      1    116    165       789.8           188.1           788.8    
     69      1    112    165       779.7           486.6           778.7    
     70      1    116    166       789.8           284.5           788.8    
     71      1    115    166       789.7           141.9           788.7    
     72      1    112    166       779.7           275.4           778.7    
     73      1    111    166       779.7           518.7           778.7    
     74      1    110    166       779.7           117.1           778.7    
     75      1    115    167       785.3           244.1           784.3    
     76      1    114    167       784.8           326.9           783.8    
     77      1    113    167       784.3           318.6           783.3    
     78      1    112    167       779.7           315.2           778.7    
     79      1    111    167       779.7           315.2           778.7    
     80      1    110    167       779.7           903.8           778.7    
     81      1    110    168       779.7           158.9           778.7    
     82      1    109    170       778.3           771.2           777.3    
     83      1    109    171       778.5           35.57           777.5    
     84      1    108    171       773.4           905.7           772.4    
     85      1    108    172       773.4           232.9           772.4    
     86      1    107    172       773.4           853.0           772.4    
     87      1    106    172       773.4           275.2           772.4    
     88      1    106    173       773.4           618.4           772.4    
     89      1    105    173       772.6           471.4           771.6    
     90      1    105    174       772.6           487.3           771.6    
     91      1    111    149       800.0           264.9           799.0    
     92      1    110    149       800.0           578.8           799.0    
     93      1    111    150       797.4           532.6           796.4    
     94      1    195     59       842.0          0.1518E+05       839.0    
     95      1    199     68       866.0          0.1842E+05       863.0    
     96      1    186     71       935.0          0.1772E+05       932.0    
     97      1    189     37       802.0           787.1           801.0    
     98      1    190     40       803.0           1016.           802.0    
     99      1    191     41       804.0           2638.           803.0    
    100      1    200     46       811.0           229.6           810.0    
    101      1    190     39       799.7           2043.           798.7    
    102      1    191     40       804.2           3046.           803.2    
    103      1    198     45       809.3           748.7           808.3    
    104      1    190     38       799.5           2316.           798.5    
    105      1    189     35       798.4           2307.           797.4    
    106      1    194     43       806.2           2108.           805.2    
    107      1    197     44       806.4           1332.           805.4    
    108      1    192     41       804.2           2454.           803.2    
    109      1    195     43       806.2           2731.           805.2    
    110      1    199     45       806.4           2373.           805.4    
    111      1    188     33       796.3           2047.           795.3    
    112      1    187     33       795.8           2322.           794.8    
    113      1    189     34       797.1           2905.           796.1    
    114      1    188     34       796.9           1178.           795.9    
    115      1    189     36       798.6           2469.           797.6    
    116      1    190     37       798.9           1569.           797.9    
    117      1    191     39       803.0           528.4           802.0    
    118      1    193     41       805.4           1433.           804.4    
    119      1    194     42       805.4           614.5           804.4    
    120      1    193     42       805.4           2540.           804.4    
    121      1    197     43       806.4           1362.           805.4    
    122      1    196     43       806.4           2307.           805.4    
    123      1    198     44       806.4           2409.           805.4    
    124      1    200     45       807.1           1809.           806.1    
    125      1    204     46       807.1           2084.           806.1    
    126      1    203     46       807.1           2009.           806.1    
    127      1    202     46       807.1           1980.           806.1    
    128      1    201     46       807.1           2022.           806.1    
    129      1    205     47       807.1           2159.           806.1    
    130      1    204     47       807.1           542.0           806.1    
    131      1    149      7       786.2          0.1522E+05       783.2    
    132      1    178     44       825.0          0.2063E+05       822.0    
    133      1    178     45       826.8          0.2098E+05       823.8    
    134      1    177     46       826.0          0.2873E+05       823.0    
    135      1    175      8       790.3          0.2208E+05       787.3    
    136      1    175      9       790.3          0.1879E+05       787.3    
    137      1     19     62       1080.          0.1577E+05       1077.    
    138      1    178     89       877.1          0.1532E+05       874.1    
    139      1    183     91       888.8          0.1620E+05       885.8    
    140      1    176     97       863.0          0.1532E+05       860.0    
    141      1    188     99       885.0          0.2091E+05       882.0    
    142      1    186    109       850.0          0.2067E+05       847.0    
    143      1    185    109       849.0          0.2582E+05       846.0    
    144      1    186    110       850.0          0.1678E+05       847.0    
    145      1    193     94       908.9          0.2410E+05       905.9    
    146      1    189     98       887.6          0.2046E+05       884.6    
    147      1    188     98       887.6          0.1687E+05       884.6    
    148      1    185    108       852.9          0.1703E+05       849.9    
    149      1    163    103       849.2          0.1778E+05       846.2    
    150      1    191    136       884.0          0.1561E+05       881.0    
    151      1    193    142       885.0          0.1560E+05       882.0    
    152      1    184    142       883.4          0.1822E+05       880.4    
    153      1    196    143       893.0          0.2463E+05       890.0    
    154      1    187    146       878.0          0.1546E+05       875.0    
    155      1    186    146       876.0          0.1945E+05       873.0    
    156      1    194    147       894.0          0.2013E+05       891.0    
    157      1    195    148       893.0          0.1838E+05       890.0    
    158      1    183    148       876.0          0.1979E+05       873.0    
    159      1    198    149       895.0          0.1996E+05       892.0    
    160      1    197    149       890.0          0.2638E+05       887.0    
    161      1    198    150       897.0          0.2438E+05       894.0    
    162      1    167    150       890.0          0.1550E+05       887.0    
    163      1    185    151       879.0          0.1515E+05       876.0    
    164      1    184    151       876.0          0.2219E+05       873.0    
    165      1    185    152       879.5          0.1789E+05       876.5    
    166      1    184    152       876.0          0.2483E+05       873.0    
    167      1    185    153       879.5          0.1780E+05       876.5    
    168      1    164    142       887.2          0.1644E+05       884.2    
    169      1    165    143       887.2          0.2994E+05       884.2    
    170      1    164    143       887.2          0.2976E+05       884.2    
    171      1    164    144       887.2          0.1663E+05       884.2    
    172      1    166    145       884.7          0.2570E+05       881.7    
    173      1    121     86       843.0          0.1629E+05       840.0    
    174      1    134     91       832.0          0.2171E+05       829.0    
    175      1    109     97       859.8          0.1590E+05       856.8    
    176      1    142    101       858.9          0.2174E+05       855.9    
    177      1    158    142       879.7          0.2109E+05       876.7    
    178      1    157    144       887.6          0.1900E+05       884.6    
    179      1    159    145       889.7          0.1567E+05       886.7    
    180      1    158    145       888.0          0.2663E+05       885.0    
    181      1    157    145       887.0          0.1738E+05       884.0    
    182      1    159    146       886.0          0.2284E+05       883.0    
    183      1    158    146       887.0          0.2455E+05       884.0    
    184      1    130    148       930.3          0.2740E+05       927.3    
    185      1    129    148       917.0          0.2305E+05       914.0    
    186      1    130    149       923.0          0.2994E+05       920.0    
    187      1    129    149       914.0          0.2435E+05       911.0    
    188      1    132    103       889.0          0.1760E+05       886.0    
    189      1    112    110       956.4          0.2331E+05       953.4    
    190      1    139    111       934.6          0.1682E+05       931.6    
    191      1    139    119       916.9          0.1860E+05       913.9    
    192      1    154    120       885.0          0.1640E+05       882.0    
    193      1    126    120       924.7          0.2321E+05       921.7    
    194      1    126    121       924.3          0.2054E+05       921.3    
    195      1    142    132       916.1          0.1994E+05       913.1    
    196      1    155    135       865.0          0.1549E+05       862.0    
    197      1    147    142       896.2          0.2979E+05       893.2    
    198      1    139    105       883.7          0.1804E+05       880.7    
    199      1     48     64       994.2          0.1498E+05       991.2    
    200      1     83     75       888.0          0.1582E+05       885.0    
    201      1     86     76       886.0          0.1880E+05       883.0    
    202      1     82     76       888.0          0.1512E+05       885.0    
    203      1     88     77       880.4          0.2021E+05       877.4    
    204      1     87     77       882.0          0.1558E+05       879.0    
    205      1     86     77       881.0          0.2890E+05       878.0    
    206      1     90     78       879.8          0.1685E+05       876.8    
    207      1     25     94       972.0          0.2091E+05       969.0    
    208      1     80     66       918.3          0.1920E+05       915.3    
    209      1     65     67       1037.          0.1580E+05       1034.    
    210      1    104     52       878.0          0.1629E+05       875.0    
    211      1    141     15       778.0          0.2688E+05       775.0    
    212      1    142     16       779.0          0.1643E+05       776.0    
    213      1    141     16       778.7          0.2994E+05       775.7    
    214      1    141     17       779.0          0.2285E+05       776.0    
    215      1    140     19       780.3          0.2112E+05       777.3    
    216      1    139     22       781.3          0.1517E+05       778.3    
    217      1    137     24       781.6          0.2474E+05       778.6    
    218      1    137     25       783.3          0.2639E+05       780.3    
    219      1    140     26       784.9          0.1908E+05       781.9    
    220      1    139     26       783.6          0.2121E+05       780.6    
    221      1    139     27       784.1          0.2819E+05       781.1    
    222      1    139     28       784.6          0.2513E+05       781.6    
    223      1    139     29       784.9          0.1571E+05       781.9    
    224      1    136     33       785.0          0.1856E+05       782.0    
    225      1    136     34       787.3          0.1964E+05       784.3    
    226      1    136     35       787.8          0.1989E+05       784.8    
    227      1    136     36       787.5          0.1967E+05       784.5    
    228      1    137     38       789.2          0.2970E+05       786.2    
    229      1    138     40       794.0          0.1746E+05       791.0    
    230      1    138     41       794.0          0.2252E+05       791.0    
    231      1    137     43       793.0          0.1838E+05       790.0    
    232      1      5    109       968.6          0.1508E+05       965.6    
    233      1     12    122       873.3          0.2204E+05       870.3    
    234      1      9    122       864.0          0.2478E+05       861.0    
    235      1      7    122       862.7          0.1645E+05       859.7    
    236      1      9    123       864.0          0.1786E+05       861.0    
    237      1      8    124       860.4          0.2994E+05       857.4    
    238      1      8    125       860.4          0.2945E+05       857.4    
    239      1      9    126       861.6          0.2875E+05       858.6    
    240      1      8    126       860.0          0.2994E+05       857.0    
    241      1      8    127       861.0          0.2883E+05       858.0    
    242      1      7    127       860.0          0.2994E+05       857.0    
    243      1      5    127       859.0          0.2069E+05       856.0    
    244      1      7    128       860.4          0.1880E+05       857.4    
    245      1     16    136       884.0          0.2074E+05       881.0    
    246      1     15    136       884.0          0.1831E+05       881.0    
    247      1     16    137       883.0          0.2453E+05       880.0    
    248      1     15    137       881.0          0.2994E+05       878.0    
    249      1     15    138       882.0          0.2903E+05       879.0    
    250      1     14    138       880.0          0.1686E+05       877.0    
    251      1     13    143       887.0          0.2027E+05       884.0    
    252      1     13    144       887.0          0.2927E+05       884.0    
    253      1     13    145       884.8          0.2516E+05       881.8    
    254      1     12    145       881.0          0.1839E+05       878.0    
    255      1     13    146       883.0          0.2473E+05       880.0    
    256      1     12    146       878.0          0.1701E+05       875.0    
    257      1     13    147       880.6          0.1965E+05       877.6    
    258      1     12    147       877.0          0.2161E+05       874.0    
    259      1     15    148       885.0          0.1533E+05       882.0    
    260      1     13    148       879.7          0.1895E+05       876.7    
    261      1     12    148       878.0          0.2091E+05       875.0    
    262      1     12    149       878.0          0.1951E+05       875.0    
    263      1     12    150       879.1          0.1782E+05       876.1    
    264      1     14    151       874.5          0.2191E+05       871.5    
    265      1     10    155       874.0          0.1619E+05       871.0    
    266      1     16    167       866.0          0.1654E+05       863.0    
    267      1     23    173       783.7          0.2963E+05       780.7    
    268      1     22    173       782.0          0.2994E+05       779.0    
    269      1     21    173       781.0          0.2788E+05       778.0    
    270      1      2    173       845.0          0.2093E+05       842.0    
    271      1      1    173       845.0          0.1825E+05       842.0    
    272      1     23    174       785.2          0.2186E+05       782.2    
    273      1     22    174       782.0          0.2994E+05       779.0    
    274      1     21    174       780.0          0.2994E+05       777.0    
    275      1     20    174       783.7          0.2527E+05       780.7    
    276      1     19    174       783.7          0.1682E+05       780.7    
    277      1     11    174       804.9          0.1645E+05       801.9    
    278      1     22    175       784.9          0.2146E+05       781.9    
    279      1     10    180       806.0          0.2125E+05       803.0    
    280      1      7    182       794.2          0.2623E+05       791.2    
    281      1      6    182       794.2          0.2706E+05       791.2    
    282      1      7    183       794.2          0.2986E+05       791.2    
    283      1      6    183       794.0          0.2994E+05       791.0    
    284      1      5    183       794.0          0.1829E+05       791.0    
    285      1      8    184       794.0          0.1910E+05       791.0    
    286      1      7    184       794.2          0.2731E+05       791.2    
    287      1      6    184       794.0          0.2994E+05       791.0    
    288      1      5    184       794.0          0.2966E+05       791.0    
    289      1      4    184       794.2          0.2010E+05       791.2    
    290      1      3    184       794.7          0.1672E+05       791.7    
    291      1      5    185       793.9          0.2994E+05       790.9    
    292      1      4    185       793.9          0.2994E+05       790.9    
    293      1      3    185       794.0          0.2994E+05       791.0    
    294      1      2    185       793.0          0.2994E+05       790.0    
    295      1      7    186       793.9          0.2200E+05       790.9    
    296      1      4    186       793.9          0.2994E+05       790.9    
    297      1      3    186       793.9          0.2994E+05       790.9    
    298      1      2    186       794.0          0.2994E+05       791.0    
    299      1      1    186       794.0          0.1539E+05       791.0    
    300      1      7    187       793.9          0.1815E+05       790.9    
    301      1      4    187       793.9          0.2994E+05       790.9    
    302      1      3    187       793.9          0.2994E+05       790.9    
    303      1      2    187       793.9          0.2994E+05       790.9    
    304      1      1    187       793.9          0.2154E+05       790.9    
    305      1      6    188       793.9          0.2994E+05       790.9    
    306      1      2    188       793.9          0.2994E+05       790.9    
    307      1      1    188       793.0          0.2994E+05       790.0    
    308      1      5    189       793.9          0.2994E+05       790.9    
    309      1      4    189       793.0          0.2994E+05       790.0    
    310      1      1    189       793.0          0.2994E+05       790.0    
    311      1      5    190       793.9          0.1538E+05       790.9    
    312      1      1    190       793.9          0.2308E+05       790.9    
    313      1      5    167       805.5          0.2168E+05       802.5    
    314      1      6    189       793.9          0.1539E+05       790.9    
    315      1     13     76       1060.          0.1722E+05       1057.    
    316      1      7     93       998.0          0.1918E+05       995.0    
    317      1      7     94       991.8          0.1524E+05       988.8    
    318      1     26    107       950.3          0.1788E+05       947.3    
    319      1     34    204       751.7          0.2590E+05       748.7    
    320      1     26    208       801.4          0.2002E+05       798.4    
    321      1     46    217       739.6          0.1795E+05       736.6    
    322      1     44    217       736.5          0.1535E+05       733.5    
    323      1     43    217       736.5          0.1978E+05       733.5    
    324      1     47    218       737.2          0.2800E+05       734.2    
    325      1     44    218       736.5          0.2036E+05       733.5    
    326      1     41    219       734.5          0.2809E+05       731.5    
    327      1     40    219       739.6          0.2989E+05       736.6    
    328      1     39    219       739.6          0.2994E+05       736.6    
    329      1     38    219       739.6          0.1773E+05       736.6    
    330      1     47    221       738.0          0.1526E+05       735.0    
    331      1     27    149       896.2          0.2244E+05       893.2    
    332      1     30    150       898.4          0.1566E+05       895.4    
    333      1     33    154       887.0          0.1605E+05       884.0    
    334      1     39    167       769.8          0.1627E+05       766.8    
    335      1     37    167       769.8          0.1518E+05       766.8    
    336      1     35    167       769.8          0.2138E+05       766.8    
    337      1     34    167       769.8          0.1582E+05       766.8    
    338      1     47    168       801.0          0.2801E+05       798.0    
    339      1     56    170       825.9          0.2204E+05       822.9    
    340      1     55    170       822.8          0.1917E+05       819.8    
    341      1     42    174       768.0          0.2399E+05       765.0    
    342      1     41    174       769.0          0.2752E+05       766.0    
    343      1     36    174       768.0          0.2779E+05       765.0    
    344      1     42    175       769.0          0.2448E+05       766.0    
    345      1     41    175       769.8          0.2994E+05       766.8    
    346      1     40    175       769.8          0.2774E+05       766.8    
    347      1     86     81       899.8          0.2279E+05       896.8    
    348      1     86     82       899.6          0.1813E+05       896.6    
    349      1     82     85       908.6          0.1579E+05       905.6    
    350      1     63     91       942.2          0.2235E+05       939.2    
    351      1     62     91       944.7          0.2337E+05       941.7    
    352      1     91     92       881.0          0.2303E+05       878.0    
    353      1     64     92       946.0          0.1644E+05       943.0    
    354      1     63     92       945.0          0.2930E+05       942.0    
    355      1     89     94       877.0          0.1783E+05       874.0    
    356      1     91     97       879.8          0.1969E+05       876.8    
    357      1     90    105       878.6          0.1830E+05       875.6    
    358      1     23    126       913.1          0.2053E+05       910.1    
    359      1     34    141       878.4          0.2492E+05       875.4    
    360      1     34    144       892.3          0.2033E+05       889.3    
    361      1     34    145       897.6          0.1874E+05       894.6    
    362      1     84    148       836.0          0.1651E+05       833.0    
    363      1     77    151       801.9          0.2290E+05       798.9    
    364      1     75    151       806.2          0.1798E+05       803.2    
    365      1     81    152       815.4          0.1777E+05       812.4    
    366      1     80    152       804.5          0.1599E+05       801.5    
    367      1     79    152       801.9          0.1685E+05       798.9    
    368      1     78    152       801.9          0.2954E+05       798.9    
    369      1     77    152       801.9          0.2994E+05       798.9    
    370      1     76    152       801.0          0.2511E+05       798.0    
    371      1     75    152       801.9          0.2664E+05       798.9    
    372      1     66    152       801.9          0.2158E+05       798.9    
    373      1     81    153       808.6          0.2102E+05       805.6    
    374      1     80    153       804.5          0.1748E+05       801.5    
    375      1     78    153       801.9          0.2850E+05       798.9    
    376      1     77    153       801.9          0.2834E+05       798.9    
    377      1     76    153       801.0          0.2993E+05       798.0    
    378      1     75    153       800.0          0.2994E+05       797.0    
    379      1     74    153       801.9          0.2630E+05       798.9    
    380      1     67    153       801.9          0.1630E+05       798.9    
    381      1     66    153       801.9          0.2988E+05       798.9    
    382      1     64    153       801.0          0.2223E+05       798.0    
    383      1     80    154       808.6          0.1841E+05       805.6    
    384      1     75    154       801.0          0.2424E+05       798.0    
    385      1     74    154       801.0          0.2994E+05       798.0    
    386      1     73    154       801.0          0.2994E+05       798.0    
    387      1     72    154       801.9          0.2994E+05       798.9    
    388      1     71    154       801.9          0.2898E+05       798.9    
    389      1     70    154       801.9          0.2410E+05       798.9    
    390      1     69    154       801.9          0.2117E+05       798.9    
    391      1     68    154       801.9          0.2224E+05       798.9    
    392      1     67    154       801.9          0.2994E+05       798.9    
    393      1     74    155       801.9          0.2217E+05       798.9    
    394      1     73    155       799.0          0.2994E+05       796.0    
    395      1     72    155       799.0          0.2994E+05       796.0    
    396      1     71    155       799.0          0.2994E+05       796.0    
    397      1     70    155       801.0          0.2994E+05       798.0    
    398      1     69    155       800.0          0.2994E+05       797.0    
    399      1     68    155       801.0          0.2994E+05       798.0    
    400      1     67    155       801.0          0.2994E+05       798.0    
    401      1     65    155       801.9          0.2992E+05       798.9    
    402      1     73    156       798.0          0.2980E+05       795.0    
    403      1     72    156       798.0          0.2994E+05       795.0    
    404      1     71    156       796.0          0.2994E+05       793.0    
    405      1     70    156       796.0          0.2994E+05       793.0    
    406      1     69    156       799.0          0.2994E+05       796.0    
    407      1     68    156       801.0          0.2994E+05       798.0    
    408      1     64    156       800.0          0.2634E+05       797.0    
    409      1     73    157       801.9          0.1582E+05       798.9    
    410      1     72    157       800.0          0.2941E+05       797.0    
    411      1     71    157       796.0          0.2994E+05       793.0    
    412      1     70    157       797.0          0.2858E+05       794.0    
    413      1     69    157       799.0          0.2808E+05       796.0    
    414      1     68    157       801.0          0.2516E+05       798.0    
    415      1     67    157       801.0          0.2994E+05       798.0    
    416      1     66    157       799.0          0.2994E+05       796.0    
    417      1     63    157       801.9          0.2853E+05       798.9    
    418      1     62    157       801.9          0.1874E+05       798.9    
    419      1     61    157       801.9          0.1563E+05       798.9    
    420      1     60    157       801.9          0.1848E+05       798.9    
    421      1     66    158       798.0          0.1804E+05       795.0    
    422      1     65    158       797.0          0.2885E+05       794.0    
    423      1     59    159       801.9          0.2810E+05       798.9    
    424      1     58    159       801.9          0.2682E+05       798.9    
    425      1     55    159       801.9          0.1692E+05       798.9    
    426      1     77    163       859.8          0.1808E+05       856.8    
    427      1     96    108       862.5          0.1539E+05       859.5    
    428      1     93    110       855.8          0.2994E+05       852.8    
    429      1     92    110       855.7          0.2994E+05       852.7    
    430      1     91    110       855.2          0.2994E+05       852.2    
    431      1     93    111       855.8          0.2801E+05       852.8    
    432      1     92    111       855.8          0.2994E+05       852.8    
    433      1     91    111       855.0          0.2994E+05       852.0    
    434      1     90    111       855.0          0.2994E+05       852.0    
    435      1     91    112       854.8          0.2562E+05       851.8    
    436      1     90    112       854.3          0.2982E+05       851.3    
    437      1     88    112       851.8          0.1892E+05       848.8    
    438      1     87    112       851.8          0.1909E+05       848.8    
    439      1     90    113       854.3          0.1750E+05       851.3    
    440      1     86    113       851.8          0.1924E+05       848.8    
    441      1     85    113       851.8          0.2500E+05       848.8    
    442      1     86    114       851.8          0.1567E+05       848.8    
    443      1     85    114       851.8          0.2994E+05       848.8    
    444      1     83    114       851.8          0.2287E+05       848.8    
    445      1    107    122       883.0          0.2366E+05       880.0    
    446      1    111    125       894.8          0.2978E+05       891.8    
    447      1    111    126       893.0          0.2554E+05       890.0    
    448      1     47    223       736.4          0.1685E+05       733.4    
    449      1     53    225       734.5          0.1863E+05       731.5    
    450      1     80    211       739.1          0.2381E+05       736.1    
    451      1     79    211       739.1          0.2683E+05       736.1    
    452      1     78    211       739.1          0.1561E+05       736.1    
    453      1     93    212       747.0          0.2222E+05       744.0    
    454      1     92    212       751.0          0.1673E+05       748.0    
    455      1     82    212       739.1          0.2885E+05       736.1    
    456      1     81    212       739.1          0.2730E+05       736.1    
    457      1     80    212       736.0          0.2994E+05       733.0    
    458      1     79    212       735.0          0.2994E+05       732.0    
    459      1     78    212       736.0          0.2991E+05       733.0    
    460      1     94    213       740.5          0.2358E+05       737.5    
    461      1     93    213       740.5          0.2038E+05       737.5    
    462      1     92    213       740.5          0.1936E+05       737.5    
    463      1     86    213       746.0          0.1707E+05       743.0    
    464      1     83    213       739.1          0.2798E+05       736.1    
    465      1     80    213       735.0          0.2703E+05       732.0    
    466      1     79    213       736.0          0.2994E+05       733.0    
    467      1     78    213       736.0          0.2442E+05       733.0    
    468      1     94    214       740.5          0.2984E+05       737.5    
    469      1     93    214       738.0          0.2401E+05       735.0    
    470      1     92    214       740.0          0.2763E+05       737.0    
    471      1     91    214       739.0          0.2168E+05       736.0    
    472      1     82    214       739.1          0.1664E+05       736.1    
    473      1     79    214       738.0          0.1545E+05       735.0    
    474      1     77    214       736.8          0.2302E+05       733.8    
    475      1     76    214       736.4          0.2767E+05       733.4    
    476      1     75    214       732.0          0.2994E+05       729.0    
    477      1     74    214       731.0          0.2994E+05       728.0    
    478      1     69    214       732.0          0.2109E+05       729.0    
    479      1     68    214       736.0          0.2229E+05       733.0    
    480      1     94    215       740.5          0.1861E+05       737.5    
    481      1     92    215       740.5          0.1985E+05       737.5    
    482      1     91    215       739.0          0.2635E+05       736.0    
    483      1     76    215       734.0          0.2271E+05       731.0    
    484      1     75    215       731.0          0.2973E+05       728.0    
    485      1     74    215       730.0          0.2994E+05       727.0    
    486      1     73    215       732.0          0.2715E+05       729.0    
    487      1     67    215       736.3          0.2857E+05       733.3    
    488      1     66    215       736.5          0.2139E+05       733.5    
    489      1     92    216       757.0          0.1873E+05       754.0    
    490      1     91    216       743.4          0.1954E+05       740.4    
    491      1     74    216       731.0          0.2752E+05       728.0    
    492      1     73    216       731.0          0.2994E+05       728.0    
    493      1     72    216       734.0          0.2047E+05       731.0    
    494      1     67    216       736.3          0.2054E+05       733.3    
    495      1     97    217       752.8          0.1781E+05       749.8    
    496      1     74    217       735.9          0.1519E+05       732.9    
    497      1     73    217       732.0          0.2994E+05       729.0    
    498      1     72    217       733.0          0.2980E+05       730.0    
    499      1     65    217       734.5          0.2364E+05       731.5    
    500      1     64    217       734.0          0.2957E+05       731.0    
    501      1     63    217       734.5          0.2840E+05       731.5    
    502      1     62    217       734.0          0.2945E+05       731.0    
    503      1     61    217       734.5          0.1721E+05       731.5    
    504      1    100    218       747.0          0.2580E+05       744.0    
    505      1     99    218       744.0          0.2864E+05       741.0    
    506      1     98    218       749.0          0.1625E+05       746.0    
    507      1     77    218       744.8          0.2017E+05       741.8    
    508      1     73    218       734.5          0.2994E+05       731.5    
    509      1     72    218       730.0          0.2994E+05       727.0    
    510      1     71    218       724.0          0.2994E+05       721.0    
    511      1     70    218       731.0          0.2804E+05       728.0    
    512      1     69    218       734.5          0.2491E+05       731.5    
    513      1     68    218       734.5          0.2985E+05       731.5    
    514      1     67    218       733.0          0.1890E+05       730.0    
    515      1     65    218       734.5          0.2994E+05       731.5    
    516      1     64    218       733.0          0.2994E+05       730.0    
    517      1     63    218       734.0          0.2891E+05       731.0    
    518      1     62    218       734.0          0.2994E+05       731.0    
    519      1     61    218       734.0          0.2994E+05       731.0    
    520      1     60    218       734.0          0.2788E+05       731.0    
    521      1    100    219       753.0          0.2207E+05       750.0    
    522      1     99    219       744.0          0.2994E+05       741.0    
    523      1     98    219       745.0          0.2994E+05       742.0    
    524      1     94    219       743.9          0.1846E+05       740.9    
    525      1     86    219       739.6          0.1818E+05       736.6    
    526      1     74    219       736.0          0.2236E+05       733.0    
    527      1     73    219       733.0          0.2994E+05       730.0    
    528      1     72    219       729.0          0.2961E+05       726.0    
    529      1     71    219       731.0          0.2252E+05       728.0    
    530      1     70    219       734.0          0.2038E+05       731.0    
    531      1     69    219       734.0          0.2310E+05       731.0    
    532      1     68    219       731.0          0.2993E+05       728.0    
    533      1     67    219       730.0          0.1983E+05       727.0    
    534      1     65    219       734.5          0.2994E+05       731.5    
    535      1     64    219       733.0          0.2994E+05       730.0    
    536      1     63    219       733.0          0.2994E+05       730.0    
    537      1     62    219       733.0          0.2994E+05       730.0    
    538      1     61    219       733.0          0.2994E+05       730.0    
    539      1     60    219       733.0          0.2994E+05       730.0    
    540      1     59    219       734.5          0.2994E+05       731.5    
    541      1     58    219       734.5          0.2994E+05       731.5    
    542      1     57    219       734.5          0.2846E+05       731.5    
    543      1     99    220       747.0          0.2475E+05       744.0    
    544      1     98    220       746.0          0.2851E+05       743.0    
    545      1     77    220       743.2          0.1641E+05       740.2    
    546      1     76    220       736.0          0.1851E+05       733.0    
    547      1     74    220       735.7          0.2316E+05       732.7    
    548      1     73    220       731.0          0.2994E+05       728.0    
    549      1     72    220       731.0          0.2936E+05       728.0    
    550      1     71    220       734.5          0.2511E+05       731.5    
    551      1     70    220       734.5          0.2273E+05       731.5    
    552      1     69    220       734.5          0.1972E+05       731.5    
    553      1     68    220       734.5          0.2994E+05       731.5    
    554      1     67    220       734.0          0.2994E+05       731.0    
    555      1     66    220       734.5          0.2990E+05       731.5    
    556      1     65    220       734.5          0.2994E+05       731.5    
    557      1     64    220       734.5          0.2994E+05       731.5    
    558      1     63    220       733.0          0.2994E+05       730.0    
    559      1     62    220       733.0          0.2994E+05       730.0    
    560      1     61    220       733.0          0.2994E+05       730.0    
    561      1     60    220       732.0          0.2994E+05       729.0    
    562      1     59    220       732.0          0.2994E+05       729.0    
    563      1     58    220       732.0          0.2994E+05       729.0    
    564      1     57    220       734.0          0.2949E+05       731.0    
    565      1    102    221       754.5          0.2509E+05       751.5    
    566      1    101    221       754.0          0.2458E+05       751.0    
    567      1    100    221       749.0          0.2388E+05       746.0    
    568      1     99    221       747.0          0.2377E+05       744.0    
    569      1     92    221       745.0          0.1504E+05       742.0    
    570      1     90    221       745.8          0.1540E+05       742.8    
    571      1     82    221       739.0          0.1513E+05       736.0    
    572      1     81    221       739.0          0.1811E+05       736.0    
    573      1     80    221       739.0          0.2354E+05       736.0    
    574      1     79    221       739.0          0.2899E+05       736.0    
    575      1     74    221       735.6          0.1754E+05       732.6    
    576      1     73    221       733.0          0.1637E+05       730.0    
    577      1     72    221       734.0          0.2988E+05       731.0    
    578      1     71    221       734.5          0.2994E+05       731.5    
    579      1     70    221       734.5          0.2971E+05       731.5    
    580      1     69    221       734.5          0.2994E+05       731.5    
    581      1     68    221       734.5          0.2994E+05       731.5    
    582      1     67    221       734.5          0.2994E+05       731.5    
    583      1     66    221       734.5          0.2994E+05       731.5    
    584      1     65    221       734.5          0.2994E+05       731.5    
    585      1     64    221       734.5          0.2994E+05       731.5    
    586      1     63    221       734.5          0.2994E+05       731.5    
    587      1     62    221       734.0          0.2994E+05       731.0    
    588      1     61    221       734.0          0.2994E+05       731.0    
    589      1     60    221       734.0          0.2994E+05       731.0    
    590      1     59    221       734.0          0.2994E+05       731.0    
    591      1     58    221       734.0          0.2943E+05       731.0    
    592      1     57    221       734.5          0.1775E+05       731.5    
    593      1    102    222       751.0          0.1950E+05       748.0    
    594      1     92    222       748.8          0.2262E+05       745.8    
    595      1     85    222       739.0          0.2446E+05       736.0    
    596      1     84    222       739.0          0.1596E+05       736.0    
    597      1     83    222       739.0          0.2252E+05       736.0    
    598      1     82    222       739.0          0.2994E+05       736.0    
    599      1     81    222       735.0          0.2994E+05       732.0    
    600      1     80    222       736.0          0.2873E+05       733.0    
    601      1     79    222       736.0          0.2414E+05       733.0    
    602      1     76    222       736.8          0.2513E+05       733.8    
    603      1     75    222       736.8          0.2994E+05       733.8    
    604      1     74    222       737.0          0.2461E+05       734.0    
    605      1     72    222       734.5          0.1979E+05       731.5    
    606      1     71    222       734.5          0.2994E+05       731.5    
    607      1     70    222       734.5          0.2994E+05       731.5    
    608      1     69    222       734.5          0.2994E+05       731.5    
    609      1     68    222       734.5          0.2994E+05       731.5    
    610      1     67    222       734.5          0.2994E+05       731.5    
    611      1     66    222       734.5          0.2994E+05       731.5    
    612      1     65    222       734.5          0.2994E+05       731.5    
    613      1     64    222       734.5          0.2994E+05       731.5    
    614      1     63    222       734.5          0.2994E+05       731.5    
    615      1     62    222       734.5          0.2994E+05       731.5    
    616      1     61    222       734.5          0.2994E+05       731.5    
    617      1     60    222       734.5          0.2994E+05       731.5    
    618      1     59    222       734.5          0.2994E+05       731.5    
    619      1     58    222       734.5          0.2939E+05       731.5    
    620      1     57    222       734.5          0.1918E+05       731.5    
    621      1     82    223       737.0          0.2751E+05       734.0    
    622      1     81    223       737.0          0.2763E+05       734.0    
    623      1     75    223       736.8          0.1626E+05       733.8    
    624      1     74    223       736.3          0.2811E+05       733.3    
    625      1     73    223       734.9          0.1780E+05       731.9    
    626      1     72    223       734.5          0.1807E+05       731.5    
    627      1     71    223       734.5          0.1883E+05       731.5    
    628      1     70    223       734.5          0.2994E+05       731.5    
    629      1     69    223       734.5          0.2994E+05       731.5    
    630      1     68    223       734.5          0.2994E+05       731.5    
    631      1     67    223       734.5          0.2994E+05       731.5    
    632      1     66    223       734.5          0.2994E+05       731.5    
    633      1     65    223       734.5          0.2994E+05       731.5    
    634      1     64    223       734.5          0.2994E+05       731.5    
    635      1     63    223       734.5          0.2994E+05       731.5    
    636      1     62    223       734.5          0.2994E+05       731.5    
    637      1     61    223       734.5          0.2994E+05       731.5    
    638      1     60    223       734.5          0.2994E+05       731.5    
    639      1     59    223       734.5          0.2994E+05       731.5    
    640      1     58    223       734.5          0.2994E+05       731.5    
    641      1     57    223       734.5          0.1807E+05       731.5    
    642      1     82    224       739.0          0.2382E+05       736.0    
    643      1     80    224       739.0          0.1936E+05       736.0    
    644      1     74    224       736.2          0.1763E+05       733.2    
    645      1     73    224       734.0          0.2987E+05       731.0    
    646      1     72    224       734.5          0.2991E+05       731.5    
    647      1     71    224       734.5          0.2469E+05       731.5    
    648      1     70    224       734.5          0.2994E+05       731.5    
    649      1     69    224       734.5          0.2994E+05       731.5    
    650      1     68    224       734.5          0.2994E+05       731.5    
    651      1     67    224       734.5          0.2994E+05       731.5    
    652      1     66    224       734.5          0.2987E+05       731.5    
    653      1     65    224       734.5          0.2818E+05       731.5    
    654      1     64    224       734.5          0.2994E+05       731.5    
    655      1     63    224       734.5          0.2994E+05       731.5    
    656      1     62    224       734.5          0.2994E+05       731.5    
    657      1     61    224       734.5          0.2994E+05       731.5    
    658      1     60    224       734.5          0.2994E+05       731.5    
    659      1     59    224       734.5          0.2994E+05       731.5    
    660      1     58    224       734.5          0.2994E+05       731.5    
    661      1     98    225       751.0          0.2677E+05       748.0    
    662      1     97    225       751.0          0.1553E+05       748.0    
    663      1     85    225       748.6          0.1523E+05       745.6    
    664      1     83    225       739.0          0.1925E+05       736.0    
    665      1     82    225       739.0          0.2994E+05       736.0    
    666      1     72    225       734.5          0.1597E+05       731.5    
    667      1     71    225       734.5          0.2815E+05       731.5    
    668      1     70    225       734.5          0.2670E+05       731.5    
    669      1     69    225       734.5          0.2179E+05       731.5    
    670      1     68    225       734.5          0.2994E+05       731.5    
    671      1     67    225       734.5          0.2994E+05       731.5    
    672      1     66    225       734.5          0.2678E+05       731.5    
    673      1     65    225       734.5          0.1511E+05       731.5    
    674      1     64    225       734.5          0.2994E+05       731.5    
    675      1     63    225       734.5          0.2994E+05       731.5    
    676      1     62    225       734.5          0.2994E+05       731.5    
    677      1     61    225       734.5          0.2994E+05       731.5    
    678      1     60    225       734.5          0.2994E+05       731.5    
    679      1     59    225       734.5          0.2994E+05       731.5    
    680      1     58    225       734.5          0.2994E+05       731.5    
    681      1     57    225       734.5          0.2691E+05       731.5    
    682      1    159    192       841.0          0.1701E+05       838.0    
    683      1    155    196       819.6          0.1642E+05       816.6    
    684      1    161    197       837.7          0.2001E+05       834.7    
    685      1    158    197       828.2          0.1691E+05       825.2    
    686      1    155    197       815.0          0.2565E+05       812.0    
    687      1    152    197       813.0          0.2843E+05       810.0    
    688      1    151    197       813.0          0.2116E+05       810.0    
    689      1    158    198       826.0          0.2527E+05       823.0    
    690      1    152    198       815.0          0.2963E+05       812.0    
    691      1    151    198       811.0          0.2994E+05       808.0    
    692      1    152    199       819.6          0.2263E+05       816.6    
    693      1    151    199       811.0          0.2994E+05       808.0    
    694      1    149    202       792.0          0.1892E+05       789.0    
    695      1    148    202       794.2          0.2179E+05       791.2    
    696      1    147    202       794.2          0.1930E+05       791.2    
    697      1    148    203       794.0          0.2684E+05       791.0    
    698      1    147    203       790.9          0.1654E+05       787.9    
    699      1    145    206       737.6          0.1938E+05       734.6    
    700      1    143    208       737.0          0.2192E+05       734.0    
    701      1    147    210       754.0          0.1573E+05       751.0    
    702      1    146    212       737.6          0.1603E+05       734.6    
    703      1    145    212       737.0          0.1504E+05       734.0    
    704      1    144    212       736.0          0.2359E+05       733.0    
    705      1    138    212       736.0          0.2277E+05       733.0    
    706      1    146    213       736.0          0.2632E+05       733.0    
    707      1    145    213       734.0          0.2888E+05       731.0    
    708      1    145    214       734.0          0.1582E+05       731.0    
    709      1    145    215       733.0          0.1744E+05       730.0    
    710      1    136    215       731.0          0.2437E+05       728.0    
    711      1    146    216       734.0          0.1591E+05       731.0    
    712      1    145    216       732.0          0.1730E+05       729.0    
    713      1    147    217       732.1          0.2308E+05       729.1    
    714      1    146    217       732.0          0.2837E+05       729.0    
    715      1    141    217       732.0          0.2485E+05       729.0    
    716      1    140    217       731.0          0.2924E+05       728.0    
    717      1    139    217       734.0          0.2994E+05       731.0    
    718      1    149    218       731.8          0.2360E+05       728.8    
    719      1    143    218       731.0          0.2994E+05       728.0    
    720      1    142    218       731.0          0.2994E+05       728.0    
    721      1    141    218       735.7          0.2994E+05       732.7    
    722      1    140    218       745.6          0.2994E+05       742.6    
    723      1    139    218       758.3          0.2994E+05       755.3    
    724      1    148    219       730.0          0.1835E+05       727.0    
    725      1    144    219       731.0          0.2504E+05       728.0    
    726      1    143    219       732.0          0.2994E+05       729.0    
    727      1    142    219       731.0          0.2994E+05       728.0    
    728      1    141    219       734.9          0.2994E+05       731.9    
    729      1    140    219       742.8          0.2994E+05       739.8    
    730      1    139    219       754.0          0.2994E+05       751.0    
    731      1    147    220       730.0          0.2994E+05       727.0    
    732      1    146    220       737.2          0.2994E+05       734.2    
    733      1    145    220       734.0          0.2994E+05       731.0    
    734      1    144    220       732.0          0.2991E+05       729.0    
    735      1    143    220       731.0          0.2994E+05       728.0    
    736      1    142    220       735.0          0.2994E+05       732.0    
    737      1    141    220       735.1          0.2994E+05       732.1    
    738      1    140    220       739.0          0.2994E+05       736.0    
    739      1    139    220       757.0          0.2994E+05       754.0    
    740      1    138    220       761.0          0.2994E+05       758.0    
    741      1    176    221       754.0          0.1701E+05       751.0    
    742      1    147    221       733.0          0.2994E+05       730.0    
    743      1    146    221       738.4          0.2994E+05       735.4    
    744      1    145    221       734.9          0.2994E+05       731.9    
    745      1    144    221       734.9          0.2994E+05       731.9    
    746      1    143    221       733.0          0.2994E+05       730.0    
    747      1    142    221       735.1          0.2994E+05       732.1    
    748      1    141    221       735.0          0.2994E+05       732.0    
    749      1    140    221       737.0          0.2994E+05       734.0    
    750      1    139    221       741.8          0.2994E+05       738.8    
    751      1    149    222       732.2          0.1733E+05       729.2    
    752      1    148    222       732.0          0.2931E+05       729.0    
    753      1    147    222       735.0          0.2994E+05       732.0    
    754      1    146    222       737.2          0.2994E+05       734.2    
    755      1    145    222       734.9          0.2994E+05       731.9    
    756      1    144    222       734.9          0.2994E+05       731.9    
    757      1    143    222       736.0          0.2994E+05       733.0    
    758      1    142    222       735.1          0.2994E+05       732.1    
    759      1    141    222       736.0          0.2994E+05       733.0    
    760      1    140    222       737.0          0.2994E+05       734.0    
    761      1    149    223       734.0          0.2992E+05       731.0    
    762      1    148    223       738.0          0.2994E+05       735.0    
    763      1    147    223       737.0          0.2994E+05       734.0    
    764      1    146    223       734.0          0.2994E+05       731.0    
    765      1    145    223       737.0          0.2994E+05       734.0    
    766      1    144    223       736.0          0.2994E+05       733.0    
    767      1    143    223       737.5          0.2994E+05       734.5    
    768      1    142    223       737.7          0.2994E+05       734.7    
    769      1    141    223       736.0          0.2994E+05       733.0    
    770      1    152    224       730.9          0.2420E+05       727.9    
    771      1    151    224       733.0          0.2948E+05       730.0    
    772      1    150    224       735.0          0.2994E+05       732.0    
    773      1    149    224       734.0          0.2994E+05       731.0    
    774      1    148    224       738.0          0.2994E+05       735.0    
    775      1    147    224       739.0          0.2994E+05       736.0    
    776      1    146    224       740.3          0.2994E+05       737.3    
    777      1    145    224       740.3          0.2994E+05       737.3    
    778      1    144    224       739.4          0.2994E+05       736.4    
    779      1    143    224       739.2          0.2994E+05       736.2    
    780      1    180    225       769.0          0.1608E+05       766.0    
    781      1    155    225       734.0          0.2458E+05       731.0    
    782      1    154    225       733.0          0.2994E+05       730.0    
    783      1    152    225       730.8          0.1672E+05       727.8    
    784      1    151    225       730.8          0.2908E+05       727.8    
    785      1    150    225       732.9          0.2699E+05       729.9    
    786      1    149    225       738.0          0.2934E+05       735.0    
    787      1    148    225       738.0          0.2994E+05       735.0    
    788      1    147    225       738.0          0.2994E+05       735.0    
    789      1    146    225       739.7          0.2994E+05       736.7    
    790      1    145    225       739.3          0.2994E+05       736.3    
    791      1    144    225       739.3          0.2994E+05       736.3    
    792      1    143    225       739.3          0.2994E+05       736.3    
    793      1    142    209       735.0          0.2052E+05       732.0    
    794      1    142    210       737.0          0.2188E+05       734.0    
    795      1    141    210       736.0          0.2000E+05       733.0    
    796      1    142    211       737.0          0.2619E+05       734.0    
    797      1    143    212       735.0          0.2299E+05       732.0    
    798      1    138    216       731.0          0.2987E+05       728.0    
    799      1    137    216       733.0          0.2994E+05       730.0    
    800      1    138    217       735.3          0.2994E+05       732.3    
    801      1    137    217       734.7          0.2994E+05       731.7    
    802      1    136    217       731.0          0.2994E+05       728.0    
    803      1    133    217       734.7          0.1893E+05       731.7    
    804      1    138    218       757.1          0.2994E+05       754.1    
    805      1    137    218       735.3          0.2994E+05       732.3    
    806      1    136    218       732.0          0.2994E+05       729.0    
    807      1    135    218       731.0          0.2994E+05       728.0    
    808      1    132    218       730.0          0.2032E+05       727.0    
    809      1    138    219       763.4          0.2994E+05       760.4    
    810      1    137    219       741.5          0.2994E+05       738.5    
    811      1    136    219       734.7          0.2994E+05       731.7    
    812      1    135    219       732.0          0.2994E+05       729.0    
    813      1    134    219       732.0          0.2994E+05       729.0    
    814      1    137    220       757.8          0.2994E+05       754.8    
    815      1    136    220       734.8          0.2994E+05       731.8    
    816      1    135    220       733.0          0.2994E+05       730.0    
    817      1    134    220       732.0          0.2994E+05       729.0    
    818      1    133    220       732.0          0.2994E+05       729.0    
    819      1    138    221       764.6          0.2994E+05       761.6    
    820      1    137    221       739.7          0.2994E+05       736.7    
    821      1    136    221       736.9          0.2994E+05       733.9    
    822      1    135    221       734.7          0.2994E+05       731.7    
    823      1    134    221       733.0          0.2908E+05       730.0    
    824      1    133    221       732.0          0.2895E+05       729.0    
    825      1    132    221       733.0          0.2504E+05       730.0    
    826      1    139    222       739.2          0.2994E+05       736.2    
    827      1    138    222       739.6          0.2994E+05       736.6    
    828      1    137    222       738.7          0.2994E+05       735.7    
    829      1    136    222       734.7          0.2479E+05       731.7    
    830      1    133    222       734.0          0.1916E+05       731.0    
    831      1    128    222       748.9          0.1671E+05       745.9    
    832      1    140    223       739.3          0.2994E+05       736.3    
    833      1    139    223       739.0          0.2994E+05       736.0    
    834      1    138    223       739.3          0.2994E+05       736.3    
    835      1    137    223       738.7          0.2699E+05       735.7    
    836      1    142    224       738.0          0.2994E+05       735.0    
    837      1    141    224       736.0          0.2994E+05       733.0    
    838      1    140    224       736.0          0.2994E+05       733.0    
    839      1    139    224       736.0          0.2994E+05       733.0    
    840      1    138    224       737.0          0.2566E+05       734.0    
    841      1    142    225       739.3          0.2994E+05       736.3    
    842      1    141    225       733.0          0.2994E+05       730.0    
    843      1    140    225       737.0          0.2994E+05       734.0    
    844      1    139    225       737.0          0.2994E+05       734.0    
    845      1    138    225       736.0          0.1541E+05       733.0    
    846      1    113    177       794.8          0.2006E+05       791.8    
    847      1    115    178       794.8          0.1837E+05       791.8    
    848      1    113    178       794.8          0.2884E+05       791.8    
    849      1    112    178       790.0          0.2994E+05       787.0    
    850      1    116    179       792.0          0.1658E+05       789.0    
    851      1    115    179       791.0          0.1619E+05       788.0    
    852      1    114    179       791.0          0.1555E+05       788.0    
    853      1    112    179       792.0          0.1738E+05       789.0    
    854      1     83    181       753.9          0.2994E+05       750.9    
    855      1     82    181       753.9          0.2994E+05       750.9    
    856      1     81    181       753.9          0.2994E+05       750.9    
    857      1     80    181       753.9          0.2432E+05       750.9    
    858      1     84    182       753.9          0.1742E+05       750.9    
    859      1     83    182       753.9          0.2994E+05       750.9    
    860      1     82    182       753.9          0.2994E+05       750.9    
    861      1     81    182       752.0          0.2994E+05       749.0    
    862      1     80    182       751.0          0.2994E+05       748.0    
    863      1     79    182       753.9          0.2554E+05       750.9    
    864      1     83    183       753.9          0.2994E+05       750.9    
    865      1     82    183       753.9          0.2994E+05       750.9    
    866      1     81    183       753.9          0.2994E+05       750.9    
    867      1     80    183       752.0          0.2994E+05       749.0    
    868      1     79    183       751.0          0.2954E+05       748.0    
    869      1     83    184       753.9          0.2870E+05       750.9    
    870      1     82    184       753.9          0.2994E+05       750.9    
    871      1     81    184       753.9          0.2994E+05       750.9    
    872      1     80    184       753.9          0.2994E+05       750.9    
    873      1     79    184       753.9          0.2491E+05       750.9    
    874      1     82    185       753.9          0.2544E+05       750.9    
    875      1     81    185       753.9          0.2994E+05       750.9    
    876      1     80    185       753.9          0.2993E+05       750.9    
    877      1     81    186       753.9          0.2994E+05       750.9    
    878      1     80    186       753.9          0.2097E+05       750.9    
    879      1    121    198       738.9          0.2923E+05       735.9    
    880      1    120    198       738.9          0.2846E+05       735.9    
    881      1    117    198       735.5          0.2571E+05       732.5    
    882      1    111    198       737.2          0.1688E+05       734.2    
    883      1    110    198       737.2          0.1988E+05       734.2    
    884      1    109    198       737.2          0.1922E+05       734.2    
    885      1    101    198       744.0          0.1528E+05       741.0    
    886      1     73    198       734.5          0.2529E+05       731.5    
    887      1     72    198       734.5          0.2136E+05       731.5    
    888      1    123    199       738.9          0.2812E+05       735.9    
    889      1    120    199       735.0          0.2994E+05       732.0    
    890      1    117    199       735.0          0.2989E+05       732.0    
    891      1    114    199       733.0          0.1636E+05       730.0    
    892      1    111    199       736.0          0.2335E+05       733.0    
    893      1    110    199       732.5          0.2322E+05       729.5    
    894      1     73    199       734.5          0.2000E+05       731.5    
    895      1    125    200       738.9          0.2490E+05       735.9    
    896      1    124    200       738.9          0.2994E+05       735.9    
    897      1    123    200       737.0          0.2994E+05       734.0    
    898      1    122    200       737.0          0.2994E+05       734.0    
    899      1    120    200       736.0          0.2969E+05       733.0    
    900      1     89    200       747.7          0.1855E+05       744.7    
    901      1     94    201       734.5          0.2858E+05       731.5    
    902      1     93    202       734.0          0.1780E+05       731.0    
    903      1    112    203       734.0          0.2756E+05       731.0    
    904      1    111    203       736.0          0.2982E+05       733.0    
    905      1    110    203       737.2          0.1515E+05       734.2    
    906      1     89    203       750.1          0.1602E+05       747.1    
    907      1    121    204       738.7          0.1779E+05       735.7    
    908      1    113    204       732.5          0.1639E+05       729.5    
    909      1    112    204       734.0          0.2708E+05       731.0    
    910      1    105    204       749.8          0.2321E+05       746.8    
    911      1     89    204       750.0          0.1519E+05       747.0    
    912      1    105    205       744.0          0.1898E+05       741.0    
    913      1    104    205       740.0          0.2164E+05       737.0    
    914      1    102    205       749.0          0.1790E+05       746.0    
    915      1    121    206       733.0          0.2228E+05       730.0    
    916      1    115    206       734.0          0.1664E+05       731.0    
    917      1    114    206       734.0          0.1751E+05       731.0    
    918      1    112    206       736.0          0.1695E+05       733.0    
    919      1    111    206       735.0          0.2994E+05       732.0    
    920      1    110    206       733.0          0.2760E+05       730.0    
    921      1    103    206       741.0          0.1691E+05       738.0    
    922      1    102    206       743.0          0.2926E+05       740.0    
    923      1     99    206       748.0          0.1538E+05       745.0    
    924      1    126    207       735.0          0.1799E+05       732.0    
    925      1    116    207       735.0          0.1510E+05       732.0    
    926      1    111    207       733.0          0.2994E+05       730.0    
    927      1    110    207       733.0          0.2994E+05       730.0    
    928      1    102    207       741.2          0.1648E+05       738.2    
    929      1    128    208       735.3          0.1850E+05       732.3    
    930      1    127    208       733.0          0.2553E+05       730.0    
    931      1    126    208       733.0          0.2224E+05       730.0    
    932      1    116    208       733.0          0.2060E+05       730.0    
    933      1    115    208       734.0          0.1519E+05       731.0    
    934      1    111    208       736.0          0.2545E+05       733.0    
    935      1    110    208       734.0          0.2734E+05       731.0    
    936      1    105    208       741.0          0.2823E+05       738.0    
    937      1    104    208       736.0          0.2969E+05       733.0    
    938      1    103    208       736.0          0.1706E+05       733.0    
    939      1    100    208       747.0          0.1939E+05       744.0    
    940      1    117    209       734.7          0.2139E+05       731.7    
    941      1    114    209       738.0          0.1818E+05       735.0    
    942      1    113    209       742.0          0.1558E+05       739.0    
    943      1    110    209       736.0          0.2484E+05       733.0    
    944      1    109    209       736.0          0.2639E+05       733.0    
    945      1    106    209       738.0          0.1601E+05       735.0    
    946      1    104    209       741.0          0.1723E+05       738.0    
    947      1    114    210       739.0          0.1609E+05       736.0    
    948      1    113    210       739.0          0.1636E+05       736.0    
    949      1    109    210       736.0          0.1838E+05       733.0    
    950      1    108    210       734.0          0.2626E+05       731.0    
    951      1    107    210       737.2          0.2499E+05       734.2    
    952      1    106    210       739.9          0.2602E+05       736.9    
    953      1    104    210       741.0          0.2481E+05       738.0    
    954      1    103    210       736.0          0.2211E+05       733.0    
    955      1    100    210       744.0          0.1710E+05       741.0    
    956      1     96    210       752.8          0.1784E+05       749.8    
    957      1     77    210       739.0          0.2436E+05       736.0    
    958      1     76    210       748.1          0.1731E+05       745.1    
    959      1    118    211       739.0          0.1529E+05       736.0    
[...]
        888.8       886.3       883.8       881.0       877.7       874.2       870.6       867.0       863.5       860.1    
        856.7       853.3       849.8       846.2       842.2       837.7       832.4       826.5       820.2       813.8    
        807.2       800.6       793.9       787.2       780.5       773.8       767.1       760.4       753.6       746.7    
        739.8       732.6       725.2       727.4       731.4       736.3       741.7       747.8       754.7       762.4    
        771.4       781.9       792.6       790.7       789.0       788.9       790.1       792.3       795.6       800.0    
        805.7       813.2       822.8       832.4       822.5       812.6       804.7       798.4       793.3       789.0    
        785.2       781.9       778.9       776.3       774.1       772.2       770.9       770.0       769.6       769.1    
        768.8       768.5       768.2       768.0       767.9    
 200    790.3       790.3       790.3       790.4       790.4       790.5       790.6       790.7       790.8       790.9    
        791.1       791.2       791.4       791.6       791.8       792.1       792.3       792.6       792.9       793.2    
        793.6       793.9       794.3       794.7       795.1       795.5       796.0       796.5       797.0       797.5    
        798.0       798.6       799.2       799.8       800.4       801.0       801.7       802.4       803.0       803.7    
        804.4       805.0       805.7       806.3       807.1       810.1       812.0       814.5       817.1       819.8    
        822.5       825.1       827.7       830.3       832.9       835.4       837.9       840.5       843.0       845.5    
        848.0       850.5       853.0       855.4       857.8       860.2       862.4       864.6       866.3       867.8    
        869.2       870.6       871.8       873.0       874.1       875.0       875.9       876.8       877.6       878.3    
        879.0       879.6       880.2       880.8       881.4       881.9       882.4       882.9       883.3       883.7    
        883.9       884.0       883.9       883.7       883.3       882.6       881.8       880.9       879.9       878.8    
        877.7       876.5       875.4       874.3       873.2       872.2       871.2       870.3       869.4       868.6    
        867.9       867.3       866.8       866.3       865.9       865.7       865.4       865.1       865.7       866.1    
        866.4       866.8       867.2       868.0       868.7       869.1       869.3       869.4       869.8       870.1    
        870.2       874.0       875.9       877.3       878.4       879.5       880.5       881.5       882.5       883.5    
        884.5       885.4       886.2       886.8       887.3       887.7       888.2       888.5       888.7       888.1    
        886.5       884.4       882.0       879.3       876.3       873.1       869.7       866.2       862.8       859.3    
        855.8       852.2       848.5       844.6       840.4       835.7       830.5       824.9       818.9       812.7    
        806.4       799.9       793.4       786.8       780.2       773.6       766.9       760.2       753.5       746.7    
        739.8       732.8       725.2       725.2       730.9       736.5       742.4       749.0       756.3       764.8    
        775.2       790.1       817.6       799.0       793.2       791.7       792.4       794.2       797.0       800.7    
        805.1       810.3       815.4       818.5       814.9       809.2       803.5       798.2       793.6       789.4    
        785.7       782.3       779.1       776.3       773.8       771.8       770.3       769.3       769.5       769.0    
        768.8       768.5       768.3       768.2       768.1    
 201    790.4       790.4       790.4       790.4       790.5       790.6       790.7       790.8       790.9       791.0    
        791.2       791.3       791.5       791.7       791.9       792.2       792.4       792.7       793.0       793.3    
        793.7       794.0       794.4       794.8       795.2       795.6       796.1       796.6       797.1       797.6    
        798.1       798.7       799.3       799.9       800.5       801.1       801.7       802.4       803.0       803.7    
        804.3       805.0       805.6       806.2       806.8       807.2       810.7       813.7       816.5       819.3    
        822.0       824.7       827.4       830.1       832.7       835.2       837.8       840.3       842.8       845.3    
        847.8       850.3       852.7       855.1       857.4       859.7       861.8       863.8       865.6       867.2    
        868.7       870.1       871.3       872.5       873.6       874.6       875.6       876.5       877.3       878.0    
        878.7       879.4       880.0       880.6       881.1       881.7       882.1       882.5       882.9       883.2    
        883.3       883.4       883.3       883.0       882.6       882.0       881.3       880.5       879.6       878.6    
        877.5       876.5       875.4       874.4       873.4       872.4       871.4       870.6       869.7       869.0    
        868.3       867.7       867.2       866.8       866.5       866.3       866.2       866.6       866.7       866.7    
        866.8       866.8       867.0       868.3       869.0       869.3       869.7       870.1       870.6       871.0    
        871.0       875.9       877.0       877.8       878.6       879.5       880.5       881.4       882.3       883.2    
        884.1       884.9       885.5       886.1       886.5       886.8       887.0       887.1       886.8       886.0    
        884.6       882.7       880.5       877.9       875.1       872.1       868.8       865.5       862.1       858.6    
        855.0       851.3       847.4       843.3       838.9       834.2       829.1       823.6       817.8       811.8    
        805.6       799.3       792.9       786.4       779.9       773.3       766.7       760.0       753.4       746.7    
        740.0       733.6       728.0       725.2       730.6       736.3       742.5       749.4       756.8       765.2    
        774.7       785.5       796.4       794.6       792.9       792.5       793.4       795.2       797.6       800.5    
        803.9       807.3       810.1       811.3       809.5       805.9       801.7       797.5       793.4       789.5    
        785.9       782.4       779.1       775.9       773.0       770.9       769.2       767.4       768.9       768.8    
        768.7       768.5       768.4       768.3       768.2    
 202    790.4       790.4       790.5       790.5       790.6       790.6       790.7       790.8       790.9       791.1    
        791.2       791.4       791.6       791.8       792.0       792.3       792.5       792.8       793.1       793.4    
        793.7       794.1       794.5       794.9       795.3       795.7       796.2       796.6       797.1       797.7    
        798.2       798.7       799.3       799.9       800.5       801.1       801.7       802.4       803.0       803.6    
        804.3       804.9       805.5       806.1       806.6       807.1       810.0       812.9       815.9       818.8    
        821.6       824.4       827.2       829.8       832.5       835.1       837.6       840.2       842.7       845.2    
        847.7       850.1       852.5       854.8       857.1       859.3       861.3       863.3       865.1       866.7    
        868.2       869.6       871.0       872.2       873.3       874.3       875.3       876.2       877.0       877.8    
        878.5       879.2       879.8       880.4       880.9       881.4       881.9       882.2       882.6       882.8    
        882.9       882.9       882.8       882.5       882.1       881.6       880.9       880.2       879.3       878.4    
        877.4       876.4       875.4       874.5       873.5       872.5       871.6       870.8       870.0       869.3    
        868.6       868.1       867.6       867.2       866.9       866.7       866.7       866.8       866.9       867.0    
        867.1       867.3       867.7       868.4       869.1       869.6       870.1       870.6       871.4       872.3    
        873.9       877.7       878.2       878.2       878.8       879.6       880.4       881.3       882.1       883.0    
        883.8       884.5       885.0       885.5       885.9       886.1       886.1       885.9       885.4       884.5    
        883.2       881.4       879.3       876.9       874.2       871.2       868.1       864.9       861.5       858.0    
        854.3       850.5       846.5       842.3       837.9       833.1       828.0       822.6       817.0       811.1    
        805.0       798.8       792.5       786.1       779.6       773.1       766.5       759.9       753.3       746.6    
        740.0       733.6       728.0       725.2       730.1       735.7       742.0       749.0       756.5       764.4    
        772.7       780.9       787.7       790.1       791.2       792.2       793.6       795.4       797.6       800.0    
        802.6       804.9       806.5       807.0       805.8       803.3       800.1       796.6       792.9       789.4    
        785.8       782.4       778.9       775.4       771.4       769.6       768.2       768.1       768.6       768.6    
        768.6       768.5       768.4       768.4       768.3    
 203    790.5       790.5       790.5       790.5       790.6       790.7       790.8       790.9       791.0       791.1    
        791.3       791.5       791.6       791.8       792.1       792.3       792.6       792.8       793.1       793.5    
        793.8       794.1       794.5       794.9       795.3       795.8       796.2       796.7       797.2       797.7    
        798.2       798.8       799.4       799.9       800.5       801.1       801.8       802.4       803.0       803.6    
        804.2       804.8       805.4       806.0       806.6       807.1       809.2       812.2       815.3       818.4    
        821.3       824.2       826.9       829.7       832.3       834.9       837.5       840.1       842.6       845.1    
        847.5       849.9       852.3       854.6       856.8       859.0       861.0       862.9       864.7       866.4    
        867.9       869.3       870.7       871.9       873.0       874.1       875.1       876.0       876.8       877.6    
        878.4       879.0       879.7       880.2       880.8       881.2       881.7       882.0       882.3       882.5    
        882.6       882.6       882.4       882.2       881.8       881.3       880.6       879.9       879.1       878.3    
        877.3       876.4       875.4       874.5       873.6       872.6       871.8       871.0       870.2       869.5    
        868.9       868.3       867.8       867.5       867.2       867.0       866.9       867.0       867.1       867.2    
        867.4       867.6       868.0       868.6       869.2       869.7       870.4       871.1       871.9       873.0    
        874.5       876.5       877.9       878.1       878.8       879.5       880.3       881.2       882.0       882.8    
        883.5       884.1       884.7       885.1       885.4       885.5       885.4       885.1       884.4       883.5    
        882.1       880.4       878.4       876.1       873.5       870.6       867.6       864.4       861.0       857.5    
        853.8       849.9       845.9       841.6       837.1       832.3       827.3       821.9       816.3       810.6    
        804.6       798.5       792.2       785.9       779.4       773.0       766.4       759.8       753.2       746.6    
        739.9       732.9       725.2       725.9       728.8       734.2       740.9       748.2       755.7       763.3    
        770.8       777.7       783.4       787.0       789.5       791.4       793.3       795.3       797.4       799.5    
        801.5       803.1       804.2       804.3       803.3       801.4       798.8       795.7       792.5       789.1    
        785.7       782.3       778.9       775.1       770.5       769.6       769.6       768.9       768.8       768.6    
        768.5       768.5       768.4       768.4       768.4    
 204    790.5       790.5       790.5       790.6       790.6       790.7       790.8       790.9       791.0       791.2    
        791.3       791.5       791.7       791.9       792.1       792.3       792.6       792.9       793.2       793.5    
        793.8       794.2       794.6       795.0       795.4       795.8       796.3       796.7       797.2       797.7    
        798.3       798.8       799.4       800.0       800.6       801.2       801.8       802.4       803.0       803.6    
        804.2       804.8       805.4       806.0       806.5       807.1       807.5       811.4       814.8       818.0    
        821.0       824.0       826.8       829.5       832.2       834.9       837.4       840.0       842.5       845.0    
        847.4       849.8       852.2       854.4       856.6       858.8       860.8       862.7       864.5       866.1    
        867.7       869.1       870.5       871.7       872.9       873.9       874.9       875.9       876.7       877.5    
        878.2       878.9       879.6       880.1       880.7       881.1       881.5       881.9       882.1       882.3    
        882.4       882.3       882.2       881.9       881.6       881.1       880.5       879.8       879.0       878.2    
        877.3       876.4       875.4       874.5       873.6       872.7       871.9       871.1       870.3       869.6    
        869.0       868.5       868.0       867.6       867.4       867.2       867.1       867.1       867.2       867.3    
        867.5       867.8       868.2       868.7       869.3       869.9       870.6       871.3       872.3       873.4    
        874.7       876.1       877.2       878.0       878.6       879.4       880.2       881.1       881.9       882.6    
        883.3       883.9       884.4       884.8       885.0       885.1       884.9       884.5       883.8       882.8    
        881.5       879.8       877.8       875.5       873.0       870.2       867.2       864.0       860.6       857.1    
        853.4       849.5       845.4       841.1       836.6       831.8       826.8       821.5       815.9       810.2    
        804.3       798.2       792.0       785.7       779.3       772.8       766.3       759.8       753.2       746.6    
        739.9       733.0       725.3       725.1       725.2       731.4       739.3       747.2       754.9       762.4    
        769.4       775.8       781.1       785.2       788.3       790.8       793.0       795.1       797.1       799.0    
        800.7       802.0       802.7       802.7       801.8       800.2       797.9       795.1       792.1       788.9    
        785.7       782.4       779.1       775.8       772.9       771.6       769.6       768.4       767.4       768.3    
        768.5       768.5       768.5       768.4       768.4    
 205    790.5       790.5       790.5       790.6       790.7       790.7       790.8       790.9       791.0       791.2    
        791.3       791.5       791.7       791.9       792.1       792.4       792.6       792.9       793.2       793.5    
        793.9       794.2       794.6       795.0       795.4       795.8       796.3       796.8       797.3       797.8    
        798.3       798.8       799.4       800.0       800.6       801.2       801.8       802.4       803.0       803.6    
        804.2       804.8       805.4       805.9       806.4       806.9       807.2       811.0       814.6       817.8    
        820.9       823.9       826.7       829.5       832.2       834.8       837.4       840.0       842.5       844.9    
        847.4       849.8       852.1       854.4       856.6       858.7       860.7       862.6       864.4       866.0    
        867.6       869.0       870.4       871.6       872.8       873.9       874.9       875.8       876.7       877.4    
        878.2       878.9       879.5       880.1       880.6       881.1       881.5       881.8       882.0       882.2    
        882.3       882.2       882.1       881.8       881.4       881.0       880.4       879.7       878.9       878.1    
        877.2       876.4       875.4       874.5       873.6       872.8       871.9       871.1       870.4       869.7    
        869.1       868.5       868.1       867.7       867.5       867.3       867.2       867.2       867.3       867.4    
        867.6       867.9       868.3       868.8       869.3       870.0       870.7       871.5       872.4       873.5    
        874.7       875.9       877.0       877.8       878.1       879.2       880.2       881.0       881.8       882.6    
        883.2       883.8       884.3       884.6       884.8       884.8       884.7       884.2       883.5       882.5    
        881.2       879.5       877.5       875.3       872.7       870.0       867.0       863.8       860.5       856.9    
        853.2       849.3       845.2       840.9       836.4       831.6       826.5       821.2       815.7       810.0    
        804.1       798.1       791.9       785.6       779.2       772.8       766.3       759.8       753.2       746.6    
        740.1       733.8       728.4       726.2       725.1       727.0       737.5       746.4       754.4       761.8    
        768.7       774.8       780.1       784.3       787.7       790.4       792.8       794.9       796.9       798.7    
        800.3       801.4       802.0       801.9       801.1       799.6       797.4       794.8       791.9       788.8    
        785.6       782.4       779.2       776.2       773.5       771.6       769.6       769.3       769.4       768.8    
        768.6       768.5       768.5       768.4       768.4    

 HEAD WILL BE SAVED ON UNIT   51 AT END OF TIME STEP    1, STRESS PERIOD    1
1
  VOLUMETRIC BUDGET FOR ENTIRE MODEL AT END OF TIME STEP    1, STRESS PERIOD   1
  ------------------------------------------------------------------------------

     CUMULATIVE VOLUMES      L**3       RATES FOR THIS TIME STEP      L**3/T
     ------------------                 ------------------------

           IN:                                      IN:
           ---                                      ---
             STORAGE =           0.0000               STORAGE =           0.0000
       CONSTANT HEAD =           0.0000         CONSTANT HEAD =           0.0000
       RIVER LEAKAGE =      400855.9375         RIVER LEAKAGE =      400855.9375

            TOTAL IN =      400855.9375              TOTAL IN =      400855.9375

          OUT:                                     OUT:
          ----                                     ----
             STORAGE =           0.0000               STORAGE =           0.0000
       CONSTANT HEAD =           0.0000         CONSTANT HEAD =           0.0000
       RIVER LEAKAGE =      400855.9375         RIVER LEAKAGE =      400855.9375

           TOTAL OUT =      400855.9375             TOTAL OUT =      400855.9375

            IN - OUT =           0.0000              IN - OUT =           0.0000

 PERCENT DISCREPANCY =           0.00     PERCENT DISCREPANCY =           0.00






         TIME SUMMARY AT END OF TIME STEP    1 IN STRESS PERIOD    1
                    SECONDS     MINUTES      HOURS       DAYS        YEARS
                    -----------------------------------------------------------
   TIME STEP LENGTH  86400.      1440.0      24.000      1.0000     2.73785E-03
 STRESS PERIOD TIME  86400.      1440.0      24.000      1.0000     2.73785E-03
         TOTAL TIME  86400.      1440.0      24.000      1.0000     2.73785E-03
1

 Run end date and time (yyyy/mm/dd hh:mm:ss): 2022/03/25  2:16:43
 Elapsed run time:  0.414 Seconds

