                                  MODFLOW-2005     
      U.S. GEOLOGICAL SURVEY MODULAR FINITE-DIFFERENCE GROUND-WATER FLOW MODEL
                            VERSION 1.12.00 2/3/2017

 LIST FILE: my_pumping_model.list
                         UNIT    2

 OPENING my_pumping_model.dis
 FILE TYPE:DIS   UNIT   11   STATUS:OLD    
 FORMAT:FORMATTED              ACCESS:SEQUENTIAL          

 OPENING my_pumping_model.bas
 FILE TYPE:BAS6   UNIT   13   STATUS:OLD    
 FORMAT:FORMATTED              ACCESS:SEQUENTIAL          

 OPENING my_pumping_model.lpf
 FILE TYPE:LPF   UNIT   15   STATUS:OLD    
 FORMAT:FORMATTED              ACCESS:SEQUENTIAL          

 OPENING my_pumping_model.wel
 FILE TYPE:WEL   UNIT   20   STATUS:OLD    
 FORMAT:FORMATTED              ACCESS:SEQUENTIAL          

 OPENING my_pumping_model.oc
 FILE TYPE:OC   UNIT   14   STATUS:OLD    
 FORMAT:FORMATTED              ACCESS:SEQUENTIAL          

 OPENING my_pumping_model.pcg
 FILE TYPE:PCG   UNIT   27   STATUS:OLD    
 FORMAT:FORMATTED              ACCESS:SEQUENTIAL          

 OPENING my_pumping_model.cbc
 FILE TYPE:DATA(BINARY)   UNIT    1   STATUS:REPLACE
 FORMAT:BINARY                 ACCESS:SEQUENTIAL          

 OPENING my_pumping_model.hds
 FILE TYPE:DATA(BINARY)   UNIT   51   STATUS:REPLACE
 FORMAT:BINARY                 ACCESS:SEQUENTIAL          

 BAS -- BASIC PACKAGE, VERSION 7, 5/2/2005 INPUT READ FROM UNIT   13
 
 MODFLOW was compiled using mixed precision
 Precision of REAL variables:           6
 Precision of DOUBLE PRECISION variables:          15

 DISCRETIZATION INPUT DATA READ FROM UNIT   11
 # DIS package for MODFLOW-2005 generated by Flopy 3.3.5
    1 LAYERS       205 ROWS       225 COLUMNS
    1 STRESS PERIOD(S) IN SIMULATION
 MODEL TIME UNIT IS DAYS
 MODEL LENGTH UNIT IS METERS
  Confining bed flag for each layer:
   0

                     DELR =   4.00000    

                     DELC =   4.00000    

 TOP ELEVATION OF LAYER 1 =   0.00000    

   MODEL LAYER BOTTOM EL. =  -50.0000     FOR LAYER   1


 STRESS PERIOD     LENGTH       TIME STEPS     MULTIPLIER FOR DELT    SS FLAG
 ----------------------------------------------------------------------------
        1         1.000000          1                    1.000         SS

 STEADY-STATE SIMULATION



 
 # BAS6 package for MODFLOW-2005 generated by Flopy 3.3.5                        
 THE FREE FORMAT OPTION HAS BEEN SELECTED



                     BOUNDARY ARRAY FOR LAYER   1
 READING ON UNIT   13 WITH FORMAT: (225I10)            

 AQUIFER HEAD WILL BE SET TO  -999.99     AT ALL NO-FLOW NODES (IBOUND=0).



                       INITIAL HEAD FOR LAYER   1
 READING ON UNIT   13 WITH FORMAT: (225E15.6)          
 # OC package for MODFLOW-2005 generated by Flopy 3.3.5

 OUTPUT CONTROL IS SPECIFIED ONLY AT TIME STEPS FOR WHICH OUTPUT IS DESIRED
 COMPACT CELL-BY-CELL BUDGET FILES WILL BE WRITTEN
 AUXILIARY DATA WILL BE SAVED IN CELL-BY-CELL BUDGET FILES
 HEAD PRINT FORMAT CODE IS   0    DRAWDOWN PRINT FORMAT CODE IS   0
 HEADS WILL BE SAVED ON UNIT   51    DRAWDOWNS WILL BE SAVED ON UNIT    0

 LPF -- LAYER-PROPERTY FLOW PACKAGE, VERSION 7, 5/2/2005
         INPUT READ FROM UNIT   15
 # LPF package for MODFLOW-2005 generated by Flopy 3.3.5
 CELL-BY-CELL FLOWS WILL BE SAVED ON UNIT    1
 HEAD AT CELLS THAT CONVERT TO DRY= -1.00000E+30
 No named parameters

   LAYER FLAGS:
 LAYER       LAYTYP        LAYAVG         CHANI        LAYVKA        LAYWET
 ---------------------------------------------------------------------------
    1             0             0     1.000E+00             0             0

   INTERPRETATION OF LAYER FLAGS:
                        INTERBLOCK     HORIZONTAL    DATA IN
         LAYER TYPE   TRANSMISSIVITY   ANISOTROPY   ARRAY VKA   WETTABILITY
 LAYER      (LAYTYP)      (LAYAVG)       (CHANI)      (LAYVKA)      (LAYWET)
 ---------------------------------------------------------------------------
    1      CONFINED      HARMONIC     1.000E+00    VERTICAL K  NON-WETTABLE

 WETTING CAPABILITY IS NOT ACTIVE IN ANY LAYER



              HYD. COND. ALONG ROWS FOR LAYER   1
 READING ON UNIT   15 WITH FORMAT: (225E15.6)          



                VERTICAL HYD. COND. FOR LAYER   1
 READING ON UNIT   15 WITH FORMAT: (225E15.6)          

 WEL -- WELL PACKAGE, VERSION 7, 5/2/2005 INPUT READ FROM UNIT   20
 # WEL package for MODFLOW-2005 generated by Flopy 3.3.5
 No named parameters
 MAXIMUM OF      1 ACTIVE WELLS AT ONE TIME


     0 Well parameters

 PCG -- CONJUGATE-GRADIENT SOLUTION PACKAGE, VERSION 7, 5/2/2005
 # PCG package for MODFLOW-2005 generated by Flopy 3.3.5
 MAXIMUM OF     50 CALLS OF SOLUTION ROUTINE
 MAXIMUM OF     30 INTERNAL ITERATIONS PER CALL TO SOLUTION ROUTINE
 MATRIX PRECONDITIONING TYPE :    1



                                    SOLUTION BY THE CONJUGATE-GRADIENT METHOD
                                   -------------------------------------------
                    MAXIMUM NUMBER OF CALLS TO PCG ROUTINE =       50
                        MAXIMUM ITERATIONS PER CALL TO PCG =       30
                               MATRIX PRECONDITIONING TYPE =        1
        RELAXATION FACTOR (ONLY USED WITH PRECOND. TYPE 1) =    0.10000E+01
 PARAMETER OF POLYNOMIAL PRECOND. = 2 (2) OR IS CALCULATED :        0
                         HEAD CHANGE CRITERION FOR CLOSURE =    0.10000E-04
                     RESIDUAL CHANGE CRITERION FOR CLOSURE =    0.10000E-04
            PCG HEAD AND RESIDUAL CHANGE PRINTOUT INTERVAL =      999
     PRINTING FROM SOLVER IS LIMITED(1) OR SUPPRESSED (>1) =        3
                            STEADY-STATE DAMPING PARAMETER =    0.10000E+01
                               TRANSIENT DAMPING PARAMETER =    0.10000E+01
1
                            STRESS PERIOD NO.    1, LENGTH =   1.000000    
                            -----------------------------------------------

                              NUMBER OF TIME STEPS =     1

                               MULTIPLIER FOR DELT =     1.000

                            INITIAL TIME STEP SIZE =   1.000000    

 WELL NO.  LAYER   ROW   COL   STRESS RATE         
 --------------------------------------------------
      1      1    113    103      -100.0    

      1 WELL 
 
 SOLVING FOR HEAD 

 OUTPUT CONTROL FOR STRESS PERIOD    1   TIME STEP    1
    PRINT HEAD FOR ALL LAYERS
    PRINT BUDGET
    SAVE HEAD FOR ALL LAYERS
    SAVE BUDGET
 UBDSV2 SAVING "   CONSTANT HEAD" ON UNIT   1 AT TIME STEP  1, STRESS PERIOD   1
 UBDSV1 SAVING "FLOW RIGHT FACE " ON UNIT   1 AT TIME STEP  1, STRESS PERIOD   1
 UBDSV1 SAVING "FLOW FRONT FACE " ON UNIT   1 AT TIME STEP  1, STRESS PERIOD   1
1
              HEAD IN LAYER   1 AT END OF TIME STEP   1 IN STRESS PERIOD    1
  ---------------------------------------------------------------------------

            1           2           3           4           5           6           7           8           9          10
           11          12          13          14          15          16          17          18          19          20
           21          22          23          24          25          26          27          28          29          30
           31          32          33          34          35          36          37          38          39          40
           41          42          43          44          45          46          47          48          49          50
           51          52          53          54          55          56          57          58          59          60
           61          62          63          64          65          66          67          68          69          70
           71          72          73          74          75          76          77          78          79          80
           81          82          83          84          85          86          87          88          89          90
           91          92          93          94          95          96          97          98          99         100
          101         102         103         104         105         106         107         108         109         110
          111         112         113         114         115         116         117         118         119         120
          121         122         123         124         125         126         127         128         129         130
          131         132         133         134         135         136         137         138         139         140
          141         142         143         144         145         146         147         148         149         150
          151         152         153         154         155         156         157         158         159         160
          161         162         163         164         165         166         167         168         169         170
          171         172         173         174         175         176         177         178         179         180
          181         182         183         184         185         186         187         188         189         190
          191         192         193         194         195         196         197         198         199         200
          201         202         203         204         205         206         207         208         209         210
          211         212         213         214         215         216         217         218         219         220
          221         222         223         224         225
 ........................................................................................................................
   1    10.00       10.00       10.00       10.00       10.00       10.00       10.00       10.00       10.00       10.00    
        10.00       10.00       10.00       10.00       10.00       10.00       10.00       10.00       10.00       10.00    
        10.00       10.00       10.00       10.00       10.00       10.00       10.00       10.00       10.00       10.00    
        10.00       10.00       10.00       10.00       10.00       10.00       10.00       10.00       10.00       10.00    
        10.00       10.00       10.00       10.00       10.00       10.00       10.00       10.00       10.00       10.00    
        10.00       10.00       10.00       10.00       10.00       10.00       10.00       10.00       10.00       10.00    
        10.00       10.00       10.00       10.00       10.00       10.00       10.00       10.00       10.00       10.00    
        10.00       10.00       10.00       10.00       10.00       10.00       10.00       10.00       10.00       10.00    
        10.00       10.00       10.00       10.00       10.00       10.00       10.00       10.00       10.00       10.00    
        10.00       10.00       10.00       10.00       10.00       10.00       10.00       10.00       10.00       10.00    
        10.00       10.00       10.00       10.00       10.00       10.00       10.00       10.00       10.00       10.00    
        10.00       10.00       10.00       10.00       10.00       10.00       10.00       10.00       10.00       10.00    
        10.00       10.00       10.00       10.00       10.00       10.00       10.00       10.00       10.00       10.00    
        10.00       10.00       10.00       10.00       10.00       10.00       10.00       10.00       10.00       10.00    
        10.00       10.00       10.00       10.00       10.00       10.00       10.00       10.00       10.00       10.00    
        10.00       10.00       10.00       10.00       10.00       10.00       10.00       10.00       10.00       10.00    
        10.00       10.00       10.00       10.00       10.00       10.00       10.00       10.00       10.00       10.00    
        10.00       10.00       10.00       10.00       10.00       10.00       10.00       10.00       10.00       10.00    
        10.00       10.00       10.00       10.00       10.00       10.00       10.00       10.00       10.00       10.00    
        10.00       10.00       10.00       10.00       10.00       10.00       10.00       10.00       10.00       10.00    
        10.00       10.00       10.00       10.00       10.00       10.00       10.00       10.00       10.00       10.00    
        10.00       10.00       10.00       10.00       10.00       10.00       10.00       10.00       10.00       10.00    
        10.00       10.00       10.00       10.00       10.00    
   2    10.00       10.00       10.00       10.00       10.00       10.00       10.00       10.00       10.00       10.00    
       10.000      10.000      10.000      10.000      10.000      10.000      10.000      10.000      10.000      10.000    
       10.000      10.000      10.000      10.000      10.000      10.000      10.000      10.000       9.999       9.999    
        9.999       9.998       9.998       9.997       9.996       9.996       9.998       9.994       9.992       9.991    
        9.990       9.990       9.989       9.989       9.989       9.989       9.988       9.988       9.988       9.988    
        9.988       9.988       9.988       9.988       9.989       9.989       9.991       9.994       9.997       9.995    
        9.994       9.994       9.994       9.994       9.994       9.995       9.995       9.995       9.995       9.994    
        9.994       9.994       9.994       9.994       9.994       9.994       9.993       9.993       9.992       9.989    
        9.987       9.983       9.977       9.968       9.952       9.937       9.951       9.958       9.961       9.963    
        9.964       9.965       9.963       9.955       9.955       9.956       9.957       9.957       9.971       9.981    
        9.985       9.987       9.989       9.990       9.992       9.995       9.997       9.999       9.999       9.999    
        9.999       9.999       9.999       9.999       9.998       9.998       9.998       9.998       9.998       9.998    
        9.998       9.998       9.998       9.999       9.999       9.999       9.999      10.000      10.000      10.000    
       10.000      10.000      10.000      10.000      10.000      10.000      10.000      10.000      10.000      10.000    
       10.000      10.000      10.000      10.000      10.000      10.000      10.000      10.000      10.000      10.000    
       10.000      10.000      10.000      10.000      10.000      10.000      10.000      10.000      10.000      10.000    
       10.000      10.000      10.000      10.000      10.000      10.000      10.000      10.000      10.000      10.000    
       10.000      10.000      10.000      10.000      10.000      10.000      10.000      10.000      10.000      10.000    
       10.000      10.000      10.000      10.000      10.000      10.000      10.000      10.000      10.000      10.000    
       10.000      10.000      10.000      10.000      10.000      10.000      10.000      10.000       10.00       10.00    
        10.00       10.00       10.00       10.00       10.00      10.000      10.000       9.999       9.999       9.999    
        9.999       9.999       9.999       9.999       9.999      10.000      10.000      10.000      10.000      10.000    
       10.000      10.000      10.000       10.00       10.00    
   3    10.00       10.00       10.00       10.00       10.00      10.000      10.000      10.000      10.000      10.000    
       10.000      10.000      10.000      10.000      10.000      10.000      10.000      10.000      10.000      10.000    
       10.000      10.000      10.000      10.000      10.000      10.000       9.999       9.999       9.999       9.998    
        9.998       9.997       9.995       9.993       9.990       9.989       9.989       9.985       9.983       9.981    
        9.980       9.979       9.979       9.978       9.978       9.977       9.977       9.977       9.976       9.976    
        9.976       9.976       9.976       9.976       9.977       9.978       9.980       9.983       9.988       9.988    
        9.988       9.988       9.989       9.989       9.989       9.989       9.989       9.989       9.989       9.989    
        9.989       9.989       9.988       9.988       9.988       9.987       9.987       9.986       9.982       9.979    
        9.974       9.967       9.957       9.943       9.934       9.935       9.936       9.939       9.941       9.944    
        9.946       9.949       9.951       9.953       9.954       9.955       9.956       9.956       9.961       9.968    
        9.972       9.975       9.977       9.980       9.984       9.989       9.995       9.998       9.998       9.998    
        9.998       9.997       9.997       9.997       9.997       9.997       9.997       9.997       9.996       9.996    
        9.996       9.996       9.997       9.997       9.998       9.999       9.999       9.999       9.999      10.000    
       10.000      10.000      10.000      10.000      10.000      10.000      10.000      10.000      10.000      10.000    
       10.000      10.000      10.000      10.000      10.000      10.000      10.000      10.000      10.000      10.000    
       10.000      10.000      10.000      10.000      10.000      10.000      10.000      10.000      10.000      10.000    
       10.000      10.000      10.000      10.000      10.000      10.000      10.000      10.000      10.000      10.000    
       10.000      10.000      10.000      10.000      10.000      10.000      10.000      10.000      10.000      10.000    
       10.000      10.000      10.000      10.000      10.000      10.000      10.000      10.000      10.000      10.000    
       10.000      10.000      10.000      10.000      10.000      10.000      10.000      10.000      10.000      10.000    
       10.000      10.000      10.000      10.000      10.000       9.999       9.999       9.999       9.999       9.999    
        9.999       9.999       9.999       9.999       9.999       9.999       9.999       9.999       9.999       9.999    
       10.000      10.000      10.000      10.000       10.00    
   4    10.00       10.00       10.00       10.00      10.000      10.000      10.000      10.000      10.000      10.000    
       10.000      10.000      10.000      10.000      10.000      10.000      10.000      10.000      10.000      10.000    
       10.000      10.000      10.000      10.000       9.999       9.999       9.999       9.999       9.999       9.998    
        9.997       9.996       9.994       9.990       9.984       9.982       9.978       9.975       9.972       9.971    
        9.970       9.969       9.968       9.967       9.966       9.966       9.965       9.965       9.964       9.964    
        9.964       9.964       9.964       9.964       9.965       9.966       9.968       9.971       9.976       9.981    
        9.981       9.982       9.983       9.983       9.984       9.984       9.984       9.984       9.984       9.984    
        9.983       9.983       9.983       9.982       9.982       9.981       9.980       9.979       9.975       9.972    
        9.964       9.954       9.942       9.931       9.932       9.933       9.935       9.938       9.941       9.944    
        9.946       9.948       9.951       9.952       9.954       9.955       9.955       9.956       9.955       9.957    
        9.959       9.962       9.966       9.970       9.975       9.981       9.990       9.997       9.997       9.997    
        9.996       9.996       9.996       9.996       9.995       9.995       9.995       9.995       9.995       9.994    
        9.994       9.994       9.994       9.995       9.997       9.998       9.999       9.999       9.999       9.999    
       10.000      10.000      10.000      10.000      10.000       9.999       9.996       9.994       9.992       9.992    
        9.991       9.991       9.990       9.990       9.989       9.989       9.989       9.988       9.988       9.988    
        9.988       9.988       9.988       9.988       9.988       9.988       9.988       9.988       9.988       9.988    
        9.988       9.988       9.988       9.988       9.988       9.988       9.988       9.989       9.989       9.989    
        9.989       9.989       9.990       9.990       9.990       9.990       9.991       9.991       9.991       9.991    
        9.992       9.992       9.992       9.993       9.993       9.993       9.994       9.994       9.994       9.995    
        9.995       9.995       9.996       9.996       9.996       9.997       9.997       9.997       9.998       9.998    
        9.998       9.998       9.999       9.999       9.998       9.998       9.997       9.998       9.998       9.998    
        9.998       9.998       9.998       9.998       9.998       9.999       9.999       9.999       9.999       9.999    
        9.999      10.000      10.000      10.000       10.00    
   5    10.00       10.00       10.00      10.000      10.000      10.000      10.000      10.000      10.000      10.000    
       10.000      10.000      10.000      10.000      10.000      10.000      10.000      10.000      10.000      10.000    
       10.000      10.000      10.000       9.999       9.999       9.999       9.999       9.999       9.999       9.996    
        9.993       9.990       9.986       9.980       9.976       9.974       9.971       9.969       9.967       9.966    
        9.964       9.963       9.962       9.962       9.961       9.960       9.959       9.959       9.958       9.958    
        9.958       9.957       9.957       9.958       9.958       9.959       9.961       9.963       9.967       9.972    
        9.975       9.976       9.977       9.978       9.978       9.978       9.979       9.978       9.978       9.978    
        9.978       9.978       9.977       9.977       9.976       9.975       9.974       9.973       9.972       9.966    
        9.955       9.945       9.935       9.930       9.930       9.931       9.931       9.933       9.937       9.940    
        9.942       9.944       9.945       9.947       9.947       9.948       9.948       9.947       9.945       9.945    
        9.947       9.950       9.953       9.958       9.964       9.972       9.981       9.992       9.996       9.996    
        9.995       9.995       9.994       9.994       9.994       9.994       9.993       9.993       9.993       9.993    
        9.992       9.992       9.992       9.992       9.992       9.994       9.995       9.996       9.996       9.996    
        9.996       9.995       9.994       9.994       9.992       9.990       9.984       9.981       9.978       9.976    
        9.974       9.972       9.971       9.970       9.969       9.968       9.967       9.966       9.966       9.965    
        9.965       9.964       9.964       9.964       9.964       9.964       9.964       9.964       9.964       9.964    
        9.964       9.965       9.965       9.965       9.966       9.966       9.967       9.967       9.968       9.968    
        9.969       9.969       9.970       9.971       9.971       9.972       9.973       9.974       9.974       9.975    
        9.976       9.977       9.978       9.979       9.980       9.980       9.981       9.982       9.983       9.984    
        9.985       9.986       9.987       9.988       9.989       9.990       9.991       9.992       9.993       9.994    
        9.995       9.995       9.996       9.996       9.996       9.996       9.996       9.997       9.997       9.997    
        9.997       9.997       9.998       9.998       9.998       9.998       9.998       9.999       9.999       9.999    
        9.999       9.999      10.000      10.000       10.00    
   6    10.00       10.00      10.000      10.000      10.000      10.000      10.000      10.000      10.000      10.000    
       10.000      10.000      10.000      10.000      10.000      10.000      10.000      10.000      10.000      10.000    
        9.999       9.998       9.998       9.997       9.997       9.996       9.996       9.995       9.993       9.989    
        9.984       9.980       9.974       9.970       9.972       9.971       9.969       9.968       9.966       9.965    
        9.964       9.963       9.962       9.961       9.961       9.960       9.959       9.959       9.958       9.958    
        9.957       9.957       9.957       9.957       9.958       9.959       9.960       9.962       9.965       9.968    
        9.970       9.971       9.972       9.973       9.973       9.973       9.973       9.973       9.973       9.973    
        9.973       9.972       9.972       9.971       9.970       9.969       9.969       9.968       9.967       9.959    
        9.945       9.934       9.929       9.928       9.928       9.928       9.928       9.927       9.930       9.933    
        9.934       9.935       9.935       9.935       9.935       9.934       9.933       9.932       9.932       9.932    
        9.933       9.936       9.940       9.945       9.952       9.960       9.971       9.985       9.995       9.995    
        9.994       9.993       9.993       9.993       9.992       9.992       9.992       9.991       9.991       9.991    
        9.990       9.990       9.989       9.989       9.987       9.987       9.989       9.990       9.990       9.989    
        9.988       9.986       9.984       9.982       9.979       9.975       9.971       9.966       9.963       9.959    
        9.957       9.954       9.952       9.950       9.948       9.946       9.945       9.944       9.943       9.942    
        9.941       9.941       9.940       9.940       9.940       9.940       9.940       9.940       9.940       9.941    
        9.941       9.941       9.942       9.943       9.943       9.944       9.945       9.945       9.946       9.947    
        9.948       9.949       9.950       9.951       9.953       9.954       9.955       9.956       9.957       9.959    
        9.960       9.962       9.963       9.965       9.966       9.968       9.969       9.971       9.972       9.974    
        9.976       9.977       9.979       9.981       9.982       9.984       9.985       9.987       9.988       9.990    
        9.991       9.992       9.993       9.994       9.995       9.996       9.996       9.996       9.996       9.996    
        9.997       9.997       9.997       9.997       9.997       9.998       9.998       9.998       9.998       9.999    
        9.999       9.999      10.000      10.000       10.00    
   7    10.00       10.00      10.000      10.000      10.000      10.000      10.000      10.000      10.000      10.000    
       10.000      10.000      10.000      10.000      10.000       9.999       9.999       9.999       9.999       9.999    
        9.997       9.996       9.994       9.993       9.992       9.991       9.989       9.988       9.985       9.981    
        9.977       9.971       9.968       9.969       9.969       9.969       9.968       9.967       9.966       9.965    
        9.964       9.963       9.962       9.961       9.960       9.960       9.959       9.958       9.958       9.957    
        9.957       9.957       9.956       9.957       9.957       9.958       9.959       9.960       9.962       9.964    
        9.965       9.966       9.967       9.968       9.968       9.968       9.968       9.968       9.968       9.968    
        9.967       9.967       9.966       9.965       9.965       9.964       9.963       9.962       9.961       9.951    
        9.933       9.925       9.925       9.926       9.926       9.926       9.926       9.926       9.926       9.927    
        9.928       9.927       9.926       9.924       9.922       9.920       9.919       9.918       9.917       9.917    
        9.919       9.922       9.926       9.931       9.938       9.947       9.957       9.970       9.984       9.990    
        9.992       9.992       9.992       9.991       9.991       9.990       9.990       9.990       9.989       9.989    
        9.988       9.988       9.987       9.986       9.985       9.984       9.985       9.985       9.985       9.983    
        9.981       9.978       9.975       9.971       9.966       9.962       9.957       9.952       9.947       9.943    
        9.939       9.935       9.932       9.930       9.927       9.925       9.923       9.921       9.920       9.919    
        9.918       9.917       9.917       9.916       9.916       9.916       9.916       9.916       9.917       9.917    
        9.918       9.918       9.919       9.920       9.921       9.922       9.923       9.924       9.925       9.926    
        9.928       9.929       9.931       9.932       9.934       9.935       9.937       9.939       9.941       9.942    
        9.944       9.946       9.948       9.950       9.953       9.955       9.957       9.959       9.961       9.964    
        9.966       9.968       9.971       9.973       9.975       9.977       9.980       9.982       9.984       9.986    
        9.988       9.990       9.991       9.993       9.994       9.995       9.995       9.995       9.995       9.996    
        9.996       9.996       9.996       9.997       9.997       9.997       9.997       9.998       9.998       9.999    
        9.999       9.999      10.000      10.000       10.00    
   8    10.00       10.00      10.000      10.000      10.000      10.000      10.000      10.000      10.000      10.000    
       10.000      10.000      10.000       9.999       9.999       9.999       9.999       9.999       9.999       9.998    
        9.995       9.993       9.991       9.989       9.988       9.986       9.984       9.981       9.978       9.974    
        9.969       9.967       9.967       9.968       9.968       9.968       9.967       9.966       9.965       9.964    
        9.963       9.963       9.962       9.961       9.960       9.959       9.959       9.958       9.957       9.957    
        9.956       9.956       9.956       9.956       9.956       9.956       9.957       9.958       9.959       9.960    
        9.961       9.962       9.963       9.963       9.963       9.963       9.963       9.963       9.963       9.963    
        9.962       9.961       9.961       9.960       9.959       9.958       9.957       9.956       9.956       9.941    
        9.925       9.924       9.924       9.925       9.925       9.925       9.924       9.924       9.923       9.923    
        9.922       9.919       9.916       9.913       9.910       9.907       9.904       9.903       9.902       9.902    
        9.903       9.906       9.910       9.915       9.922       9.931       9.942       9.954       9.968       9.981    
        9.991       9.990       9.990       9.990       9.989       9.989       9.988       9.988       9.987       9.987    
        9.986       9.986       9.985       9.984       9.983       9.982       9.981       9.981       9.980       9.978    
        9.974       9.970       9.965       9.960       9.954       9.948       9.942       9.936       9.931       9.926    
        9.921       9.916       9.913       9.909       9.906       9.903       9.901       9.899       9.897       9.896    
        9.894       9.893       9.893       9.892       9.892       9.892       9.892       9.892       9.893       9.893    
        9.894       9.895       9.896       9.897       9.898       9.899       9.901       9.902       9.904       9.905    
        9.907       9.909       9.911       9.913       9.915       9.917       9.919       9.921       9.924       9.926    
        9.929       9.931       9.934       9.936       9.939       9.942       9.945       9.947       9.950       9.953    
        9.956       9.959       9.962       9.965       9.968       9.971       9.974       9.977       9.980       9.982    
        9.985       9.987       9.989       9.991       9.993       9.994       9.994       9.995       9.995       9.995    
        9.995       9.995       9.996       9.996       9.996       9.996       9.997       9.997       9.998       9.998    
        9.999       9.999       9.999      10.000       10.00    
   9    10.00       10.00      10.000      10.000      10.000      10.000      10.000      10.000      10.000      10.000    
       10.000      10.000       9.999       9.999       9.999       9.999       9.999       9.999       9.999       9.996    
        9.993       9.990       9.987       9.985       9.983       9.981       9.978       9.976       9.972       9.968    
        9.966       9.966       9.967       9.967       9.967       9.966       9.966       9.965       9.965       9.964    
        9.963       9.962       9.961       9.961       9.960       9.959       9.958       9.958       9.957       9.956    
        9.956       9.955       9.955       9.954       9.954       9.954       9.955       9.955       9.956       9.956    
        9.957       9.958       9.958       9.958       9.959       9.959       9.959       9.958       9.958       9.958    
        9.957       9.956       9.956       9.955       9.954       9.953       9.951       9.950       9.949       9.937    
        9.924       9.924       9.924       9.923       9.923       9.923       9.923       9.923       9.922       9.922    
        9.919       9.912       9.907       9.901       9.897       9.892       9.889       9.887       9.885       9.885    
        9.886       9.888       9.892       9.898       9.905       9.914       9.925       9.938       9.952       9.967    
        9.983       9.989       9.988       9.988       9.987       9.987       9.986       9.986       9.986       9.985    
        9.984       9.984       9.983       9.982       9.981       9.980       9.979       9.978       9.977       9.973    
        9.969       9.963       9.957       9.950       9.943       9.935       9.928       9.921       9.914       9.908    
        9.902       9.897       9.892       9.888       9.884       9.881       9.878       9.876       9.874       9.872    
        9.871       9.869       9.869       9.868       9.868       9.868       9.868       9.868       9.869       9.869    
        9.870       9.871       9.872       9.874       9.875       9.877       9.878       9.880       9.882       9.884    
        9.886       9.889       9.891       9.893       9.896       9.898       9.901       9.904       9.907       9.910    
        9.913       9.916       9.919       9.922       9.925       9.929       9.932       9.936       9.939       9.943    
        9.947       9.950       9.954       9.958       9.961       9.965       9.968       9.972       9.975       9.979    
        9.982       9.985       9.987       9.990       9.992       9.993       9.994       9.994       9.994       9.994    
        9.995       9.995       9.995       9.995       9.996       9.996       9.996       9.997       9.997       9.998    
        9.999       9.999      10.000      10.000       10.00    
  10    10.00       10.00      10.000      10.000      10.000      10.000      10.000      10.000      10.000      10.000    
       10.000       9.999       9.999       9.999       9.999       9.999       9.999       9.999       9.997       9.993    
        9.990       9.987       9.984       9.981       9.978       9.976       9.973       9.970       9.967       9.965    
        9.966       9.966       9.966       9.966       9.966       9.966       9.965       9.965       9.964       9.963    
        9.963       9.962       9.961       9.960       9.959       9.959       9.958       9.957       9.956       9.956    
        9.955       9.954       9.954       9.953       9.953       9.952       9.952       9.952       9.953       9.953    
        9.953       9.954       9.954       9.954       9.954       9.954       9.954       9.954       9.953       9.953    
        9.952       9.951       9.950       9.949       9.948       9.947       9.946       9.944       9.943       9.932    
        9.924       9.923       9.922       9.922       9.922       9.922       9.921       9.921       9.921       9.921    
        9.915       9.905       9.897       9.889       9.883       9.878       9.873       9.870       9.868       9.867    
        9.867       9.869       9.873       9.878       9.886       9.895       9.906       9.919       9.935       9.952    
        9.973       9.988       9.987       9.986       9.986       9.985       9.985       9.984       9.984       9.983    
        9.983       9.982       9.981       9.980       9.980       9.979       9.977       9.976       9.975       9.971    
        9.964       9.957       9.949       9.940       9.931       9.922       9.913       9.905       9.897       9.890    
        9.883       9.877       9.872       9.867       9.862       9.859       9.855       9.852       9.850       9.848    
        9.846       9.845       9.844       9.844       9.843       9.843       9.843       9.844       9.844       9.845    
        9.846       9.848       9.849       9.851       9.852       9.854       9.856       9.858       9.861       9.863    
        9.866       9.868       9.871       9.874       9.877       9.880       9.883       9.886       9.890       9.893    
        9.897       9.900       9.904       9.908       9.912       9.916       9.920       9.924       9.928       9.933    
        9.937       9.941       9.946       9.950       9.954       9.959       9.963       9.967       9.971       9.975    
        9.979       9.982       9.986       9.989       9.991       9.993       9.993       9.993       9.993       9.994    
        9.994       9.994       9.994       9.995       9.995       9.995       9.995       9.996       9.997       9.997    
        9.998       9.999      10.000       10.00       10.00    
  11    10.00       10.00      10.000      10.000      10.000      10.000      10.000      10.000      10.000      10.000    
        9.999       9.999       9.999       9.999       9.999       9.999       9.999       9.997       9.993       9.989    
        9.986       9.983       9.980       9.977       9.974       9.971       9.968       9.966       9.965       9.965    
        9.965       9.965       9.965       9.965       9.965       9.965       9.964       9.964       9.963       9.963    
        9.962       9.961       9.961       9.960       9.959       9.958       9.958       9.957       9.956       9.955    
        9.954       9.953       9.952       9.951       9.951       9.950       9.950       9.950       9.949       9.949    
        9.950       9.950       9.950       9.950       9.950       9.950       9.949       9.949       9.948       9.948    
        9.947       9.946       9.945       9.944       9.943       9.942       9.940       9.938       9.935       9.928    
        9.924       9.922       9.921       9.920       9.920       9.920       9.920       9.920       9.920       9.921    
        9.910       9.896       9.885       9.876       9.868       9.862       9.856       9.852       9.849       9.847    
        9.847       9.849       9.852       9.857       9.865       9.874       9.885       9.899       9.915       9.934    
        9.955       9.977       9.985       9.985       9.984       9.984       9.983       9.983       9.982       9.981    
        9.981       9.980       9.979       9.979       9.978       9.977       9.976       9.975       9.974       9.970    
        9.961       9.951       9.941       9.930       9.919       9.908       9.898       9.889       9.880       9.871    
        9.864       9.857       9.850       9.845       9.840       9.836       9.832       9.829       9.826       9.824    
        9.822       9.821       9.819       9.819       9.819       9.818       9.819       9.819       9.820       9.821    
        9.822       9.824       9.825       9.827       9.829       9.831       9.834       9.836       9.839       9.842    
        9.845       9.848       9.851       9.854       9.857       9.861       9.865       9.868       9.872       9.876    
        9.881       9.885       9.889       9.894       9.898       9.903       9.907       9.912       9.917       9.922    
        9.927       9.932       9.937       9.942       9.947       9.952       9.957       9.962       9.967       9.972    
        9.976       9.980       9.984       9.988       9.991       9.992       9.992       9.992       9.993       9.993    
        9.993       9.993       9.994       9.994       9.994       9.994       9.995       9.995       9.996       9.997    
        9.998       9.999      10.000       10.00       10.00    
  12    10.00       10.00      10.000      10.000      10.000      10.000      10.000      10.000      10.000       9.999    
        9.999       9.999       9.999       9.999       9.999       9.998       9.996       9.993       9.989       9.985    
        9.982       9.979       9.976       9.973       9.970       9.966       9.964       9.964       9.965       9.965    
        9.965       9.965       9.965       9.965       9.964       9.964       9.964       9.963       9.963       9.962    
        9.962       9.961       9.960       9.960       9.959       9.958       9.957       9.956       9.956       9.955    
        9.953       9.952       9.951       9.950       9.949       9.948       9.947       9.946       9.946       9.946    
        9.946       9.946       9.946       9.946       9.945       9.945       9.945       9.944       9.944       9.943    
        9.942       9.942       9.941       9.939       9.938       9.937       9.935       9.932       9.930       9.926    
        9.923       9.921       9.919       9.919       9.918       9.918       9.918       9.919       9.920       9.913    
        9.898       9.884       9.873       9.862       9.853       9.845       9.838       9.832       9.828       9.826    
        9.825       9.826       9.829       9.834       9.841       9.851       9.862       9.876       9.893       9.912    
        9.935       9.964       9.984       9.983       9.983       9.982       9.981       9.981       9.980       9.980    
        9.979       9.978       9.978       9.977       9.976       9.975       9.975       9.974       9.973       9.970    
        9.960       9.947       9.933       9.920       9.907       9.894       9.883       9.872       9.861       9.852    
        9.843       9.835       9.829       9.822       9.817       9.812       9.808       9.804       9.801       9.799    
        9.797       9.795       9.794       9.794       9.793       9.793       9.794       9.794       9.795       9.797    
        9.798       9.800       9.802       9.804       9.806       9.809       9.811       9.814       9.817       9.820    
        9.824       9.827       9.831       9.834       9.838       9.842       9.846       9.851       9.855       9.860    
        9.864       9.869       9.874       9.879       9.884       9.890       9.895       9.900       9.906       9.912    
        9.917       9.923       9.929       9.935       9.941       9.946       9.952       9.958       9.963       9.969    
        9.974       9.979       9.983       9.988       9.990       9.991       9.991       9.992       9.992       9.992    
        9.992       9.993       9.993       9.993       9.993       9.994       9.994       9.994       9.996       9.997    
        9.998       9.999      10.000       10.00       10.00    
  13    10.00      10.000      10.000      10.000      10.000      10.000      10.000      10.000       9.999       9.999    
        9.999       9.999       9.999       9.998       9.997       9.994       9.991       9.988       9.985       9.981    
        9.978       9.975       9.972       9.969       9.966       9.964       9.964       9.964       9.964       9.964    
        9.964       9.964       9.964       9.964       9.964       9.964       9.963       9.963       9.962       9.962    
        9.961       9.961       9.960       9.959       9.959       9.958       9.957       9.956       9.955       9.954    
        9.953       9.951       9.950       9.948       9.946       9.945       9.944       9.943       9.943       9.942    
        9.942       9.942       9.942       9.941       9.941       9.941       9.940       9.940       9.939       9.939    
        9.938       9.937       9.936       9.935       9.933       9.932       9.930       9.928       9.925       9.923    
        9.920       9.918       9.917       9.916       9.916       9.916       9.917       9.918       9.912       9.899    
        9.885       9.871       9.858       9.846       9.836       9.826       9.818       9.811       9.806       9.803    
        9.801       9.802       9.804       9.809       9.816       9.825       9.837       9.851       9.868       9.888    
        9.911       9.938       9.968       9.982       9.981       9.980       9.980       9.979       9.979       9.978    
        9.977       9.977       9.976       9.975       9.975       9.974       9.973       9.972       9.972       9.971    
        9.960       9.943       9.926       9.910       9.894       9.880       9.866       9.854       9.842       9.832    
        9.822       9.814       9.806       9.799       9.793       9.788       9.783       9.779       9.776       9.774    
        9.772       9.770       9.769       9.768       9.768       9.768       9.769       9.769       9.771       9.772    
        9.774       9.776       9.778       9.780       9.783       9.786       9.789       9.792       9.795       9.799    
        9.802       9.806       9.810       9.814       9.819       9.823       9.828       9.833       9.838       9.843    
        9.848       9.853       9.859       9.865       9.870       9.876       9.882       9.888       9.895       9.901    
        9.908       9.914       9.921       9.927       9.934       9.940       9.947       9.953       9.960       9.966    
        9.972       9.977       9.983       9.988       9.990       9.990       9.991       9.991       9.991       9.991    
        9.992       9.992       9.992       9.993       9.993       9.993       9.993       9.994       9.995       9.996    
        9.998       9.999       9.999      10.000       10.00    
  14    10.00      10.000      10.000      10.000      10.000      10.000      10.000      10.000       9.999       9.999    
        9.999       9.999       9.998       9.995       9.993       9.990       9.987       9.984       9.981       9.977    
        9.974       9.970       9.967       9.965       9.964       9.964       9.964       9.964       9.964       9.964    
        9.964       9.964       9.964       9.964       9.964       9.963       9.963       9.963       9.962       9.962    
        9.961       9.960       9.960       9.959       9.958       9.958       9.957       9.956       9.955       9.954    
        9.952       9.951       9.949       9.946       9.944       9.942       9.941       9.940       9.939       9.939    
        9.938       9.938       9.938       9.937       9.937       9.937       9.936       9.935       9.935       9.934    
        9.933       9.932       9.931       9.930       9.929       9.927       9.925       9.924       9.921       9.919    
        9.917       9.916       9.914       9.913       9.913       9.913       9.915       9.911       9.899       9.886    
        9.871       9.857       9.843       9.830       9.817       9.806       9.797       9.789       9.783       9.778    
        9.776       9.776       9.777       9.782       9.788       9.797       9.809       9.823       9.840       9.860    
        9.883       9.909       9.937       9.966       9.980       9.979       9.978       9.977       9.977       9.976    
        9.976       9.975       9.974       9.974       9.973       9.972       9.972       9.971       9.971       9.970    
        9.959       9.938       9.918       9.899       9.881       9.864       9.849       9.835       9.822       9.810    
        9.800       9.791       9.782       9.775       9.768       9.763       9.758       9.754       9.751       9.748    
        9.746       9.744       9.743       9.742       9.742       9.742       9.743       9.744       9.745       9.747    
        9.749       9.751       9.754       9.756       9.759       9.762       9.766       9.769       9.773       9.777    
        9.781       9.785       9.790       9.794       9.799       9.804       9.809       9.815       9.820       9.826    
        9.831       9.837       9.844       9.850       9.856       9.863       9.870       9.876       9.883       9.890    
        9.898       9.905       9.912       9.920       9.927       9.934       9.942       9.949       9.956       9.963    
        9.970       9.976       9.982       9.987       9.989       9.989       9.990       9.990       9.990       9.991    
        9.991       9.991       9.992       9.992       9.992       9.992       9.993       9.993       9.995       9.996    
        9.998       9.999       9.999      10.000       10.00    
  15    10.00      10.000      10.000      10.000      10.000      10.000      10.000       9.999       9.999       9.999    
        9.999       9.998       9.995       9.992       9.989       9.987       9.984       9.980       9.977       9.973    
        9.970       9.966       9.964       9.964       9.964       9.964       9.964       9.964       9.964       9.964    
        9.964       9.964       9.964       9.963       9.963       9.963       9.963       9.962       9.962       9.961    
        9.961       9.960       9.960       9.959       9.958       9.957       9.957       9.956       9.955       9.954    
        9.952       9.951       9.948       9.944       9.941       9.939       9.937       9.936       9.935       9.935    
        9.934       9.934       9.934       9.933       9.933       9.932       9.932       9.931       9.931       9.930    
        9.929       9.928       9.927       9.926       9.924       9.923       9.921       9.919       9.918       9.916    
        9.914       9.912       9.911       9.910       9.909       9.909       9.908       9.899       9.887       9.873    
        9.858       9.842       9.827       9.812       9.798       9.785       9.774       9.765       9.757       9.752    
        9.748       9.747       9.748       9.752       9.758       9.767       9.778       9.792       9.809       9.829    
        9.852       9.878       9.906       9.936       9.966       9.977       9.976       9.976       9.975       9.975    
        9.974       9.973       9.973       9.972       9.972       9.971       9.970       9.970       9.969       9.969    
        9.956       9.932       9.908       9.887       9.866       9.847       9.830       9.815       9.801       9.788    
        9.777       9.767       9.758       9.750       9.743       9.737       9.732       9.728       9.724       9.721    
        9.719       9.718       9.717       9.716       9.716       9.716       9.717       9.718       9.720       9.722    
        9.724       9.726       9.729       9.732       9.735       9.739       9.742       9.746       9.751       9.755    
        9.759       9.764       9.769       9.774       9.779       9.785       9.790       9.796       9.802       9.808    
        9.815       9.821       9.828       9.835       9.842       9.849       9.857       9.864       9.872       9.880    
        9.888       9.896       9.904       9.912       9.920       9.928       9.936       9.945       9.953       9.960    
        9.968       9.976       9.983       9.988       9.988       9.989       9.989       9.989       9.990       9.990    
        9.990       9.991       9.991       9.991       9.992       9.992       9.992       9.993       9.995       9.996    
        9.998       9.999       9.999      10.000       10.00    
  16    10.00      10.000      10.000      10.000      10.000      10.000       9.999       9.998       9.997       9.997    
        9.996       9.994       9.991       9.989       9.986       9.983       9.980       9.977       9.973       9.969    
        9.966       9.964       9.964       9.964       9.964       9.964       9.964       9.964       9.964       9.964    
        9.964       9.964       9.963       9.963       9.963       9.963       9.962       9.962       9.962       9.961    
        9.960       9.960       9.959       9.959       9.958       9.957       9.956       9.956       9.955       9.954    
        9.953       9.952       9.946       9.941       9.938       9.935       9.933       9.932       9.931       9.931    
        9.930       9.930       9.929       9.929       9.929       9.928       9.928       9.927       9.926       9.926    
        9.925       9.924       9.923       9.921       9.920       9.919       9.917       9.915       9.914       9.912    
        9.910       9.909       9.908       9.906       9.905       9.905       9.901       9.892       9.878       9.862    
        9.845       9.828       9.810       9.793       9.777       9.763       9.750       9.739       9.730       9.723    
        9.718       9.716       9.716       9.719       9.725       9.733       9.745       9.758       9.775       9.795    
        9.818       9.844       9.873       9.906       9.946       9.975       9.975       9.974       9.974       9.973    
        9.972       9.972       9.971       9.971       9.970       9.969       9.969       9.968       9.968       9.968    
        9.953       9.925       9.898       9.873       9.850       9.829       9.810       9.793       9.778       9.764    
        9.752       9.742       9.732       9.724       9.717       9.711       9.705       9.701       9.697       9.694    
        9.692       9.691       9.690       9.689       9.689       9.690       9.691       9.692       9.694       9.696    
        9.699       9.701       9.704       9.708       9.711       9.715       9.719       9.723       9.728       9.733    
        9.738       9.743       9.748       9.754       9.759       9.765       9.772       9.778       9.784       9.791    
        9.798       9.805       9.812       9.820       9.828       9.836       9.844       9.852       9.860       9.869    
        9.878       9.886       9.895       9.904       9.913       9.922       9.931       9.940       9.949       9.958    
        9.967       9.975       9.983       9.987       9.988       9.988       9.988       9.989       9.989       9.989    
        9.990       9.990       9.990       9.991       9.991       9.992       9.992       9.993       9.995       9.996    
        9.997       9.999       9.999       9.999       10.00    
  17    10.00      10.000      10.000      10.000      10.000       9.999       9.998       9.997       9.995       9.994    
        9.993       9.991       9.988       9.986       9.983       9.980       9.977       9.973       9.970       9.966    
        9.964       9.964       9.964       9.964       9.964       9.964       9.964       9.964       9.964       9.964    
        9.963       9.963       9.963       9.963       9.963       9.962       9.962       9.962       9.961       9.961    
        9.960       9.960       9.959       9.959       9.958       9.957       9.956       9.956       9.955       9.954    
        9.953       9.948       9.941       9.936       9.934       9.930       9.929       9.928       9.927       9.927    
        9.926       9.926       9.925       9.925       9.925       9.924       9.924       9.923       9.922       9.921    
        9.920       9.919       9.918       9.917       9.916       9.914       9.913       9.911       9.910       9.908    
        9.907       9.905       9.904       9.903       9.901       9.900       9.897       9.888       9.871       9.853    
        9.833       9.813       9.793       9.773       9.755       9.739       9.724       9.711       9.700       9.692    
        9.686       9.683       9.682       9.684       9.690       9.697       9.708       9.722       9.739       9.758    
        9.781       9.807       9.837       9.870       9.908       9.952       9.973       9.972       9.972       9.971    
        9.971       9.970       9.970       9.969       9.968       9.968       9.967       9.967       9.967       9.966    
        9.949       9.916       9.885       9.857       9.832       9.809       9.788       9.770       9.754       9.739    
        9.726       9.715       9.705       9.697       9.689       9.683       9.678       9.673       9.670       9.667    
        9.665       9.663       9.662       9.662       9.662       9.663       9.664       9.666       9.668       9.670    
        9.673       9.676       9.679       9.683       9.687       9.691       9.696       9.700       9.705       9.710    
        9.716       9.721       9.727       9.733       9.739       9.746       9.752       9.759       9.766       9.774    
        9.781       9.789       9.797       9.805       9.813       9.822       9.830       9.839       9.849       9.858    
        9.867       9.877       9.887       9.897       9.907       9.916       9.926       9.936       9.946       9.956    
        9.965       9.974       9.983       9.987       9.987       9.987       9.988       9.988       9.988       9.989    
        9.989       9.989       9.990       9.990       9.991       9.991       9.992       9.993       9.995       9.996    
        9.997       9.998       9.999       9.999       10.00    
  18    10.00      10.000      10.000      10.000       9.999       9.998       9.996       9.995       9.993       9.992    
        9.990       9.988       9.985       9.983       9.980       9.977       9.974       9.970       9.966       9.964    
        9.964       9.964       9.964       9.964       9.964       9.964       9.964       9.964       9.964       9.963    
        9.963       9.963       9.963       9.963       9.962       9.962       9.962       9.962       9.961       9.961    
        9.960       9.960       9.959       9.959       9.958       9.957       9.956       9.956       9.955       9.951    
        9.947       9.940       9.933       9.928       9.924       9.924       9.923       9.923       9.923       9.922    
        9.922       9.922       9.921       9.921       9.921       9.920       9.920       9.919       9.918       9.917    
        9.916       9.915       9.914       9.913       9.912       9.910       9.909       9.907       9.906       9.904    
        9.903       9.901       9.900       9.899       9.897       9.896       9.895       9.885       9.866       9.844    
        9.821       9.798       9.775       9.753       9.732       9.713       9.695       9.680       9.668       9.658    
        9.651       9.647       9.645       9.647       9.651       9.659       9.669       9.682       9.699       9.718    
        9.741       9.767       9.796       9.829       9.866       9.906       9.949       9.971       9.970       9.970    
        9.969       9.968       9.968       9.967       9.967       9.966       9.966       9.965       9.965       9.965    
        9.944       9.905       9.870       9.839       9.811       9.786       9.764       9.745       9.728       9.712    
        9.699       9.687       9.677       9.669       9.661       9.654       9.649       9.645       9.641       9.638    
        9.636       9.635       9.634       9.634       9.635       9.636       9.637       9.639       9.641       9.644    
        9.647       9.650       9.654       9.658       9.662       9.667       9.672       9.677       9.682       9.688    
        9.694       9.700       9.706       9.712       9.719       9.726       9.733       9.740       9.748       9.756    
        9.764       9.772       9.781       9.789       9.798       9.808       9.817       9.827       9.837       9.847    
        9.857       9.867       9.878       9.889       9.900       9.911       9.921       9.932       9.943       9.954    
        9.964       9.974       9.982       9.986       9.986       9.986       9.987       9.987       9.987       9.988    
        9.988       9.989       9.989       9.990       9.990       9.991       9.992       9.993       9.994       9.995    
        9.996       9.998       9.998       9.999       10.00    
  19    10.00       10.00      10.000       9.999       9.998       9.996       9.995       9.993       9.991       9.990    
        9.988       9.985       9.983       9.980       9.977       9.974       9.971       9.968       9.965       9.964    
        9.964       9.964       9.964       9.964       9.964       9.964       9.964       9.964       9.963       9.963    
        9.963       9.963       9.963       9.963       9.962       9.962       9.962       9.961       9.961       9.960    
        9.960       9.960       9.959       9.959       9.955       9.952       9.951       9.949       9.947       9.941    
        9.936       9.930       9.924       9.918       9.914       9.917       9.918       9.918       9.918       9.918    
        9.918       9.918       9.918       9.917       9.917       9.916       9.916       9.915       9.914       9.913    
        9.912       9.911       9.910       9.909       9.908       9.906       9.905       9.904       9.902       9.901    
        9.899       9.898       9.896       9.895       9.893       9.892       9.891       9.883       9.862       9.837    
        9.810       9.783       9.756       9.731       9.707       9.684       9.665       9.648       9.633       9.621    
        9.613       9.608       9.605       9.606       9.610       9.617       9.627       9.640       9.656       9.675    
        9.698       9.723       9.752       9.784       9.820       9.859       9.900       9.945       9.969       9.968    
        9.967       9.967       9.966       9.966       9.965       9.965       9.964       9.964       9.964       9.963    
        9.937       9.891       9.851       9.816       9.787       9.760       9.737       9.717       9.699       9.684    
        9.670       9.658       9.648       9.639       9.631       9.625       9.620       9.615       9.612       9.609    
        9.607       9.606       9.606       9.606       9.607       9.608       9.610       9.612       9.614       9.617    
        9.621       9.624       9.629       9.633       9.638       9.643       9.648       9.653       9.659       9.665    
        9.671       9.678       9.684       9.691       9.698       9.706       9.713       9.721       9.729       9.738    
        9.746       9.755       9.764       9.774       9.783       9.793       9.803       9.814       9.824       9.835    
        9.847       9.858       9.869       9.881       9.893       9.905       9.917       9.928       9.940       9.952    
        9.964       9.976       9.983       9.984       9.985       9.986       9.986       9.986       9.987       9.987    
        9.988       9.988       9.989       9.989       9.990       9.991       9.992       9.993       9.994       9.995    
        9.996       9.997       9.998       9.999       10.00    
  20    10.00       10.00       9.999       9.998       9.996       9.995       9.993       9.992       9.990       9.988    
        9.985       9.983       9.980       9.977       9.974       9.971       9.968       9.965       9.963       9.963    
        9.963       9.963       9.963       9.963       9.963       9.963       9.963       9.962       9.961       9.961    
        9.961       9.961       9.962       9.962       9.962       9.962       9.962       9.958       9.956       9.954    
        9.953       9.953       9.952       9.950       9.945       9.942       9.940       9.937       9.935       9.931    
        9.926       9.921       9.916       9.911       9.911       9.912       9.913       9.914       9.914       9.914    
        9.914       9.914       9.914       9.913       9.913       9.912       9.912       9.911       9.910       9.909    
        9.908       9.907       9.906       9.905       9.904       9.902       9.901       9.900       9.898       9.897    
        9.895       9.894       9.892       9.891       9.889       9.888       9.886       9.884       9.864       9.831    
        9.798       9.767       9.736       9.707       9.679       9.654       9.632       9.612       9.595       9.582    
        9.572       9.565       9.562       9.562       9.565       9.572       9.582       9.594       9.610       9.629    
        9.651       9.676       9.704       9.736       9.770       9.808       9.849       9.893       9.941       9.966    
        9.966       9.965       9.964       9.964       9.964       9.963       9.963       9.962       9.962       9.962    
        9.924       9.870       9.827       9.790       9.759       9.731       9.708       9.687       9.669       9.653    
        9.639       9.627       9.617       9.608       9.601       9.594       9.589       9.585       9.582       9.579    
        9.578       9.577       9.576       9.577       9.578       9.579       9.582       9.584       9.587       9.590    
        9.594       9.598       9.603       9.607       9.612       9.618       9.623       9.629       9.635       9.642    
        9.649       9.655       9.663       9.670       9.678       9.685       9.694       9.702       9.711       9.719    
        9.729       9.738       9.748       9.758       9.768       9.779       9.790       9.801       9.812       9.824    
        9.836       9.848       9.860       9.873       9.886       9.899       9.912       9.925       9.937       9.950    
        9.963       9.976       9.983       9.983       9.985       9.985       9.985       9.986       9.986       9.986    
        9.987       9.987       9.988       9.989       9.989       9.990       9.991       9.993       9.994       9.995    
        9.996       9.997       9.998       9.999       10.00    
  21    10.00      10.000       9.999       9.997       9.995       9.994       9.992       9.990       9.988       9.986    
        9.983       9.981       9.978       9.975       9.971       9.968       9.965       9.963       9.963       9.963    
        9.963       9.963       9.963       9.963       9.963       9.963       9.962       9.959       9.957       9.955    
        9.955       9.955       9.956       9.956       9.956       9.955       9.953       9.947       9.944       9.942    
        9.940       9.939       9.938       9.936       9.933       9.930       9.928       9.926       9.924       9.920    
        9.917       9.912       9.907       9.904       9.906       9.908       9.909       9.910       9.910       9.910    
        9.910       9.910       9.910       9.910       9.909       9.909       9.908       9.907       9.906       9.906    
        9.905       9.904       9.902       9.901       9.900       9.899       9.897       9.896       9.894       9.893    
        9.891       9.890       9.888       9.887       9.886       9.884       9.883       9.881       9.861       9.823    
        9.786       9.750       9.715       9.681       9.650       9.621       9.596       9.573       9.554       9.539    
        9.528       9.520       9.516       9.515       9.518       9.524       9.533       9.546       9.561       9.580    
        9.601       9.626       9.653       9.684       9.717       9.754       9.794       9.837       9.884       9.936    
        9.964       9.963       9.963       9.962       9.962       9.961       9.961       9.961       9.961       9.941    
        9.889       9.839       9.795       9.758       9.727       9.699       9.675       9.654       9.636       9.621    
        9.607       9.595       9.585       9.576       9.569       9.563       9.558       9.554       9.551       9.548    
        9.547       9.547       9.547       9.547       9.549       9.551       9.553       9.556       9.559       9.563    
        9.567       9.572       9.576       9.582       9.587       9.593       9.599       9.605       9.612       9.619    
        9.626       9.633       9.641       9.648       9.656       9.665       9.673       9.682       9.691       9.701    
        9.711       9.721       9.731       9.742       9.752       9.764       9.775       9.787       9.799       9.812    
        9.825       9.838       9.851       9.865       9.879       9.893       9.907       9.921       9.935       9.949    
        9.962       9.975       9.981       9.982       9.983       9.985       9.985       9.985       9.985       9.985    
        9.986       9.986       9.987       9.988       9.989       9.990       9.991       9.992       9.994       9.995    
        9.996       9.997       9.998       9.999       10.00    
  22    10.00       9.999       9.997       9.995       9.994       9.993       9.992       9.989       9.987       9.984    
        9.981       9.979       9.975       9.972       9.969       9.965       9.963       9.963       9.963       9.963    
        9.963       9.963       9.963       9.963       9.963       9.961       9.957       9.954       9.952       9.950    
        9.948       9.947       9.946       9.945       9.943       9.941       9.938       9.935       9.932       9.929    
        9.927       9.925       9.924       9.922       9.921       9.919       9.917       9.915       9.913       9.911    
        9.908       9.904       9.901       9.901       9.903       9.904       9.905       9.906       9.906       9.906    
        9.907       9.906       9.906       9.906       9.905       9.905       9.904       9.904       9.903       9.902    
        9.901       9.900       9.899       9.897       9.896       9.895       9.893       9.892       9.890       9.889    
        9.887       9.886       9.885       9.883       9.882       9.880       9.879       9.878       9.857       9.815    
        9.773       9.732       9.692       9.654       9.618       9.585       9.556       9.531       9.510       9.493    
        9.480       9.471       9.466       9.464       9.467       9.473       9.482       9.494       9.509       9.527    
        9.549       9.573       9.599       9.629       9.662       9.697       9.736       9.778       9.823       9.874    
        9.930       9.961       9.961       9.961       9.960       9.960       9.959       9.959       9.959       9.913    
        9.851       9.800       9.758       9.721       9.690       9.663       9.640       9.619       9.601       9.586    
        9.572       9.561       9.551       9.543       9.536       9.530       9.525       9.521       9.519       9.517    
        9.516       9.516       9.516       9.517       9.519       9.521       9.524       9.527       9.531       9.535    
        9.540       9.545       9.550       9.556       9.561       9.568       9.574       9.581       9.588       9.595    
        9.603       9.610       9.618       9.627       9.635       9.644       9.653       9.662       9.672       9.682    
        9.692       9.703       9.714       9.725       9.737       9.749       9.761       9.773       9.787       9.800    
        9.814       9.828       9.842       9.857       9.871       9.887       9.902       9.917       9.932       9.947    
        9.962       9.974       9.978       9.980       9.981       9.983       9.983       9.984       9.984       9.984    
        9.985       9.986       9.986       9.987       9.988       9.989       9.990       9.992       9.994       9.995    
        9.996       9.997       9.998       9.999       10.00    
  23    10.00       9.998       9.996       9.994       9.993       9.993       9.991       9.988       9.985       9.982    
        9.980       9.977       9.974       9.970       9.966       9.963       9.963       9.963       9.963       9.963    
        9.963       9.963       9.963       9.963       9.961       9.956       9.952       9.949       9.946       9.943    
        9.941       9.939       9.936       9.934       9.931       9.928       9.925       9.922       9.918       9.915    
        9.913       9.912       9.910       9.909       9.908       9.907       9.906       9.905       9.903       9.902    
        9.899       9.896       9.895       9.897       9.899       9.900       9.901       9.902       9.903       9.903    
        9.903       9.903       9.903       9.902       9.902       9.901       9.901       9.900       9.899       9.898    
        9.897       9.896       9.895       9.894       9.892       9.891       9.890       9.888       9.887       9.885    
        9.884       9.882       9.881       9.879       9.878       9.876       9.875       9.874       9.852       9.807    
        9.760       9.713       9.667       9.624       9.583       9.546       9.513       9.485       9.461       9.442    
        9.428       9.418       9.412       9.410       9.412       9.418       9.427       9.439       9.454       9.472    
        9.493       9.517       9.543       9.572       9.603       9.637       9.674       9.714       9.757       9.805    
        9.859       9.921       9.959       9.959       9.959       9.958       9.957       9.957       9.923       9.857    
        9.802       9.754       9.714       9.680       9.650       9.624       9.601       9.581       9.564       9.549    
        9.536       9.525       9.516       9.508       9.501       9.496       9.491       9.488       9.486       9.485    
        9.484       9.484       9.485       9.487       9.489       9.491       9.495       9.498       9.503       9.507    
        9.512       9.517       9.523       9.529       9.535       9.542       9.549       9.556       9.564       9.571    
        9.579       9.587       9.596       9.605       9.614       9.623       9.632       9.642       9.652       9.663    
        9.674       9.685       9.696       9.708       9.720       9.733       9.746       9.759       9.773       9.787    
        9.802       9.817       9.832       9.848       9.864       9.880       9.897       9.913       9.930       9.947    
        9.964       9.975       9.976       9.977       9.979       9.981       9.982       9.982       9.983       9.983    
        9.984       9.985       9.985       9.986       9.987       9.988       9.988       9.991       9.994       9.995    
        9.996       9.997       9.998       9.999       10.00    
  24    10.00       9.998       9.995       9.993       9.993       9.992       9.989       9.987       9.984       9.981    
        9.978       9.975       9.972       9.969       9.965       9.963       9.963       9.963       9.963       9.963    
        9.963       9.963       9.963       9.961       9.956       9.951       9.947       9.943       9.940       9.937    
        9.933       9.930       9.927       9.924       9.920       9.916       9.912       9.908       9.905       9.901    
        9.899       9.898       9.897       9.896       9.896       9.895       9.895       9.895       9.894       9.893    
        9.891       9.890       9.892       9.894       9.896       9.897       9.898       9.899       9.899       9.899    
        9.900       9.899       9.899       9.899       9.898       9.898       9.897       9.896       9.896       9.895    
        9.894       9.893       9.891       9.890       9.889       9.887       9.886       9.884       9.883       9.881    
        9.880       9.878       9.877       9.875       9.874       9.872       9.871       9.870       9.848       9.800    
        9.747       9.693       9.640       9.590       9.544       9.502       9.466       9.434       9.408       9.387    
        9.372       9.361       9.354       9.352       9.354       9.360       9.369       9.381       9.396       9.414    
        9.435       9.458       9.483       9.511       9.542       9.574       9.609       9.647       9.687       9.731    
        9.778       9.830       9.885       9.906       9.927       9.955       9.955       9.914       9.848       9.792    
        9.744       9.701       9.665       9.633       9.605       9.581       9.559       9.541       9.525       9.510    
        9.498       9.488       9.479       9.472       9.465       9.461       9.457       9.454       9.452       9.451    
        9.451       9.452       9.453       9.455       9.458       9.461       9.465       9.469       9.474       9.479    
        9.484       9.490       9.496       9.502       9.509       9.516       9.524       9.531       9.539       9.547    
        9.556       9.564       9.573       9.582       9.592       9.601       9.611       9.622       9.632       9.643    
        9.655       9.666       9.678       9.691       9.704       9.717       9.731       9.745       9.760       9.775    
        9.790       9.806       9.822       9.839       9.856       9.874       9.891       9.909       9.927       9.946    
        9.964       9.974       9.974       9.975       9.977       9.979       9.981       9.981       9.981       9.982    
        9.983       9.984       9.984       9.985       9.986       9.986       9.987       9.989       9.992       9.994    
        9.995       9.997       9.998       9.999       10.00    
  25    10.00       9.998       9.995       9.993       9.993       9.991       9.988       9.985       9.982       9.979    
        9.976       9.974       9.971       9.968       9.965       9.963       9.963       9.963       9.963       9.963    
        9.963       9.963       9.960       9.955       9.950       9.946       9.942       9.938       9.934       9.930    
        9.926       9.922       9.918       9.913       9.909       9.904       9.899       9.895       9.891       9.885    
        9.884       9.883       9.883       9.883       9.883       9.884       9.884       9.885       9.885       9.886    
        9.886       9.888       9.890       9.892       9.893       9.894       9.895       9.896       9.896       9.896    
        9.896       9.896       9.896       9.896       9.895       9.895       9.894       9.893       9.892       9.891    
        9.890       9.889       9.888       9.886       9.885       9.884       9.882       9.881       9.879       9.878    
        9.876       9.874       9.873       9.871       9.869       9.868       9.866       9.865       9.848       9.798    
        9.735       9.672       9.611       9.553       9.501       9.454       9.413       9.378       9.350       9.327    
        9.310       9.299       9.292       9.290       9.293       9.299       9.308       9.320       9.336       9.354    
        9.374       9.397       9.422       9.449       9.478       9.509       9.542       9.577       9.614       9.653    
        9.694       9.735       9.774       9.802       9.829       9.868       9.864       9.812       9.764       9.719    
        9.679       9.643       9.611       9.582       9.557       9.535       9.515       9.498       9.483       9.470    
        9.458       9.449       9.441       9.434       9.429       9.424       9.421       9.419       9.418       9.417    
        9.418       9.419       9.421       9.423       9.426       9.430       9.434       9.439       9.444       9.450    
        9.456       9.462       9.468       9.475       9.483       9.490       9.498       9.506       9.514       9.523    
[...]
        9.924       9.922       9.919       9.916       9.913       9.909       9.905       9.901       9.896       9.892    
        9.887       9.885       9.884       9.886       9.889       9.894       9.898       9.902       9.907       9.911    
        9.914       9.918       9.921       9.923       9.926       9.928       9.930       9.932       9.934       9.935    
        9.937       9.938       9.939       9.941       9.942       9.943       9.945       9.946       9.947       9.949    
        9.950       9.951       9.953       9.954       9.956       9.957       9.959       9.960       9.962       9.964    
        9.965       9.967       9.969       9.970       9.972       9.973       9.975       9.976       9.978       9.979    
        9.981       9.982       9.984       9.985       9.986       9.988       9.989       9.991       9.992       9.993    
        9.995       9.996       9.997       9.999       10.00    
 200    10.00       9.999       9.998       9.996       9.995       9.994       9.993       9.992       9.991       9.990    
        9.988       9.987       9.986       9.985       9.984       9.983       9.982       9.981       9.980       9.979    
        9.977       9.976       9.975       9.973       9.972       9.970       9.969       9.967       9.966       9.964    
        9.962       9.961       9.959       9.957       9.956       9.954       9.952       9.950       9.949       9.947    
        9.945       9.943       9.941       9.939       9.937       9.934       9.932       9.930       9.927       9.925    
        9.922       9.919       9.917       9.914       9.910       9.907       9.904       9.900       9.896       9.892    
        9.888       9.884       9.880       9.876       9.873       9.869       9.866       9.863       9.861       9.860    
        9.859       9.859       9.860       9.861       9.862       9.864       9.866       9.868       9.870       9.872    
        9.874       9.876       9.878       9.880       9.882       9.884       9.885       9.887       9.889       9.890    
        9.892       9.894       9.895       9.897       9.898       9.900       9.902       9.903       9.905       9.906    
        9.908       9.909       9.911       9.912       9.913       9.915       9.916       9.917       9.918       9.920    
        9.921       9.922       9.923       9.924       9.925       9.926       9.927       9.928       9.929       9.930    
        9.931       9.932       9.933       9.934       9.935       9.935       9.936       9.937       9.938       9.938    
        9.939       9.940       9.940       9.941       9.941       9.942       9.942       9.943       9.943       9.943    
        9.943       9.943       9.943       9.943       9.942       9.942       9.941       9.940       9.939       9.938    
        9.936       9.934       9.932       9.930       9.927       9.924       9.921       9.918       9.914       9.911    
        9.908       9.906       9.906       9.907       9.909       9.912       9.915       9.919       9.922       9.925    
        9.928       9.931       9.933       9.936       9.938       9.940       9.941       9.943       9.944       9.946    
        9.947       9.948       9.949       9.951       9.952       9.953       9.954       9.955       9.956       9.957    
        9.958       9.960       9.961       9.962       9.963       9.964       9.966       9.967       9.968       9.970    
        9.971       9.972       9.974       9.975       9.977       9.978       9.979       9.980       9.982       9.983    
        9.984       9.985       9.986       9.988       9.989       9.990       9.991       9.992       9.993       9.994    
        9.995       9.997       9.998       9.999       10.00    
 201    10.00       9.999       9.998       9.997       9.996       9.995       9.994       9.993       9.992       9.992    
        9.991       9.990       9.989       9.988       9.988       9.987       9.986       9.985       9.984       9.983    
        9.982       9.981       9.980       9.979       9.977       9.976       9.975       9.974       9.973       9.971    
        9.970       9.969       9.967       9.966       9.965       9.963       9.962       9.960       9.959       9.957    
        9.956       9.954       9.953       9.951       9.949       9.947       9.946       9.944       9.942       9.940    
        9.938       9.935       9.933       9.931       9.928       9.926       9.923       9.920       9.917       9.914    
        9.911       9.908       9.904       9.901       9.898       9.896       9.893       9.891       9.890       9.889    
        9.888       9.888       9.888       9.889       9.890       9.892       9.893       9.895       9.896       9.898    
        9.900       9.901       9.903       9.904       9.905       9.907       9.908       9.910       9.911       9.912    
        9.914       9.915       9.916       9.917       9.919       9.920       9.921       9.923       9.924       9.925    
        9.926       9.927       9.929       9.930       9.931       9.932       9.933       9.934       9.935       9.936    
        9.937       9.938       9.938       9.939       9.940       9.941       9.942       9.943       9.943       9.944    
        9.945       9.946       9.946       9.947       9.948       9.948       9.949       9.950       9.950       9.951    
        9.951       9.952       9.952       9.953       9.953       9.953       9.954       9.954       9.954       9.954    
        9.954       9.954       9.954       9.954       9.954       9.953       9.953       9.952       9.951       9.950    
        9.949       9.947       9.945       9.944       9.941       9.939       9.937       9.934       9.932       9.929    
        9.927       9.926       9.926       9.927       9.928       9.930       9.932       9.935       9.938       9.940    
        9.942       9.944       9.947       9.948       9.950       9.952       9.953       9.954       9.955       9.957    
        9.958       9.959       9.959       9.960       9.961       9.962       9.963       9.964       9.965       9.966    
        9.967       9.968       9.969       9.970       9.971       9.972       9.973       9.974       9.975       9.976    
        9.977       9.978       9.979       9.980       9.981       9.982       9.983       9.984       9.985       9.986    
        9.987       9.988       9.989       9.990       9.991       9.992       9.993       9.994       9.995       9.995    
        9.996       9.997       9.998       9.999       10.00    
 202    10.00       9.999       9.999       9.998       9.997       9.996       9.996       9.995       9.994       9.994    
        9.993       9.992       9.992       9.991       9.991       9.990       9.989       9.989       9.988       9.987    
        9.986       9.986       9.985       9.984       9.983       9.982       9.981       9.980       9.979       9.978    
        9.977       9.976       9.975       9.974       9.973       9.972       9.971       9.970       9.969       9.968    
        9.967       9.966       9.964       9.963       9.962       9.961       9.959       9.958       9.956       9.955    
        9.953       9.951       9.950       9.948       9.946       9.944       9.942       9.940       9.938       9.935    
        9.933       9.931       9.928       9.926       9.924       9.922       9.920       9.919       9.918       9.917    
        9.916       9.916       9.917       9.917       9.918       9.919       9.920       9.921       9.922       9.923    
        9.925       9.926       9.927       9.928       9.929       9.930       9.931       9.932       9.933       9.934    
        9.935       9.936       9.937       9.938       9.939       9.940       9.941       9.942       9.943       9.944    
        9.945       9.946       9.946       9.947       9.948       9.949       9.950       9.950       9.951       9.952    
        9.952       9.953       9.954       9.954       9.955       9.956       9.956       9.957       9.957       9.958    
        9.959       9.959       9.960       9.960       9.961       9.961       9.962       9.962       9.963       9.963    
        9.963       9.964       9.964       9.964       9.965       9.965       9.965       9.965       9.966       9.966    
        9.966       9.966       9.966       9.965       9.965       9.965       9.964       9.964       9.963       9.962    
        9.961       9.960       9.959       9.957       9.956       9.954       9.952       9.951       9.949       9.947    
        9.946       9.945       9.945       9.946       9.947       9.948       9.950       9.951       9.953       9.955    
        9.957       9.958       9.960       9.961       9.962       9.964       9.965       9.966       9.966       9.967    
        9.968       9.969       9.970       9.970       9.971       9.972       9.972       9.973       9.974       9.974    
        9.975       9.976       9.976       9.977       9.978       9.979       9.979       9.980       9.981       9.982    
        9.983       9.983       9.984       9.985       9.986       9.987       9.987       9.988       9.989       9.990    
        9.990       9.991       9.992       9.993       9.993       9.994       9.995       9.995       9.996       9.997    
        9.997       9.998       9.999       9.999       10.00    
 203    10.00      10.000       9.999       9.999       9.998       9.998       9.997       9.997       9.996       9.996    
        9.995       9.995       9.995       9.994       9.994       9.993       9.993       9.992       9.992       9.991    
        9.991       9.990       9.990       9.989       9.989       9.988       9.987       9.987       9.986       9.986    
        9.985       9.984       9.984       9.983       9.982       9.982       9.981       9.980       9.979       9.979    
        9.978       9.977       9.976       9.975       9.975       9.974       9.973       9.972       9.971       9.970    
        9.969       9.968       9.966       9.965       9.964       9.963       9.961       9.960       9.958       9.957    
        9.955       9.954       9.952       9.951       9.949       9.948       9.947       9.946       9.945       9.945    
        9.944       9.944       9.945       9.945       9.945       9.946       9.947       9.947       9.948       9.949    
        9.950       9.951       9.951       9.952       9.953       9.953       9.954       9.955       9.955       9.956    
        9.957       9.957       9.958       9.959       9.959       9.960       9.961       9.961       9.962       9.963    
        9.963       9.964       9.964       9.965       9.965       9.966       9.966       9.967       9.967       9.968    
        9.968       9.969       9.969       9.970       9.970       9.970       9.971       9.971       9.972       9.972    
        9.972       9.973       9.973       9.973       9.974       9.974       9.974       9.975       9.975       9.975    
        9.976       9.976       9.976       9.976       9.977       9.977       9.977       9.977       9.977       9.977    
        9.977       9.977       9.977       9.977       9.977       9.976       9.976       9.976       9.975       9.975    
        9.974       9.973       9.973       9.972       9.971       9.969       9.968       9.967       9.966       9.965    
        9.964       9.964       9.964       9.964       9.965       9.965       9.966       9.968       9.969       9.970    
        9.971       9.972       9.973       9.974       9.975       9.976       9.976       9.977       9.978       9.978    
        9.979       9.979       9.980       9.980       9.981       9.981       9.982       9.982       9.982       9.983    
        9.983       9.984       9.984       9.985       9.985       9.986       9.986       9.987       9.987       9.988    
        9.988       9.989       9.990       9.990       9.991       9.991       9.992       9.992       9.993       9.993    
        9.994       9.994       9.995       9.995       9.995       9.996       9.996       9.997       9.997       9.998    
        9.998       9.999       9.999      10.000       10.00    
 204    10.00      10.000      10.000       9.999       9.999       9.999       9.999       9.998       9.998       9.998    
        9.998       9.997       9.997       9.997       9.997       9.997       9.996       9.996       9.996       9.996    
        9.995       9.995       9.995       9.995       9.994       9.994       9.994       9.993       9.993       9.993    
        9.992       9.992       9.992       9.991       9.991       9.991       9.990       9.990       9.990       9.989    
        9.989       9.989       9.988       9.988       9.987       9.987       9.986       9.986       9.985       9.985    
        9.984       9.984       9.983       9.983       9.982       9.981       9.981       9.980       9.979       9.978    
        9.978       9.977       9.976       9.975       9.975       9.974       9.974       9.973       9.973       9.972    
        9.972       9.972       9.972       9.972       9.973       9.973       9.973       9.974       9.974       9.974    
        9.975       9.975       9.976       9.976       9.976       9.977       9.977       9.977       9.978       9.978    
        9.978       9.979       9.979       9.979       9.980       9.980       9.980       9.981       9.981       9.981    
        9.982       9.982       9.982       9.982       9.983       9.983       9.983       9.983       9.984       9.984    
        9.984       9.984       9.985       9.985       9.985       9.985       9.985       9.986       9.986       9.986    
        9.986       9.986       9.987       9.987       9.987       9.987       9.987       9.987       9.988       9.988    
        9.988       9.988       9.988       9.988       9.988       9.988       9.988       9.988       9.989       9.989    
        9.989       9.989       9.988       9.988       9.988       9.988       9.988       9.988       9.988       9.987    
        9.987       9.987       9.986       9.986       9.985       9.985       9.984       9.984       9.983       9.983    
        9.982       9.982       9.982       9.982       9.982       9.983       9.983       9.984       9.984       9.985    
        9.986       9.986       9.987       9.987       9.987       9.988       9.988       9.988       9.989       9.989    
        9.989       9.990       9.990       9.990       9.990       9.991       9.991       9.991       9.991       9.991    
        9.992       9.992       9.992       9.992       9.993       9.993       9.993       9.993       9.994       9.994    
        9.994       9.994       9.995       9.995       9.995       9.996       9.996       9.996       9.996       9.997    
        9.997       9.997       9.997       9.997       9.998       9.998       9.998       9.998       9.999       9.999    
        9.999       9.999      10.000      10.000       10.00    
 205    10.00       10.00       10.00       10.00       10.00       10.00       10.00       10.00       10.00       10.00    
        10.00       10.00       10.00       10.00       10.00       10.00       10.00       10.00       10.00       10.00    
        10.00       10.00       10.00       10.00       10.00       10.00       10.00       10.00       10.00       10.00    
        10.00       10.00       10.00       10.00       10.00       10.00       10.00       10.00       10.00       10.00    
        10.00       10.00       10.00       10.00       10.00       10.00       10.00       10.00       10.00       10.00    
        10.00       10.00       10.00       10.00       10.00       10.00       10.00       10.00       10.00       10.00    
        10.00       10.00       10.00       10.00       10.00       10.00       10.00       10.00       10.00       10.00    
        10.00       10.00       10.00       10.00       10.00       10.00       10.00       10.00       10.00       10.00    
        10.00       10.00       10.00       10.00       10.00       10.00       10.00       10.00       10.00       10.00    
        10.00       10.00       10.00       10.00       10.00       10.00       10.00       10.00       10.00       10.00    
        10.00       10.00       10.00       10.00       10.00       10.00       10.00       10.00       10.00       10.00    
        10.00       10.00       10.00       10.00       10.00       10.00       10.00       10.00       10.00       10.00    
        10.00       10.00       10.00       10.00       10.00       10.00       10.00       10.00       10.00       10.00    
        10.00       10.00       10.00       10.00       10.00       10.00       10.00       10.00       10.00       10.00    
        10.00       10.00       10.00       10.00       10.00       10.00       10.00       10.00       10.00       10.00    
        10.00       10.00       10.00       10.00       10.00       10.00       10.00       10.00       10.00       10.00    
        10.00       10.00       10.00       10.00       10.00       10.00       10.00       10.00       10.00       10.00    
        10.00       10.00       10.00       10.00       10.00       10.00       10.00       10.00       10.00       10.00    
        10.00       10.00       10.00       10.00       10.00       10.00       10.00       10.00       10.00       10.00    
        10.00       10.00       10.00       10.00       10.00       10.00       10.00       10.00       10.00       10.00    
        10.00       10.00       10.00       10.00       10.00       10.00       10.00       10.00       10.00       10.00    
        10.00       10.00       10.00       10.00       10.00       10.00       10.00       10.00       10.00       10.00    
        10.00       10.00       10.00       10.00       10.00    

 HEAD WILL BE SAVED ON UNIT   51 AT END OF TIME STEP    1, STRESS PERIOD    1
1
  VOLUMETRIC BUDGET FOR ENTIRE MODEL AT END OF TIME STEP    1, STRESS PERIOD   1
  ------------------------------------------------------------------------------

     CUMULATIVE VOLUMES      L**3       RATES FOR THIS TIME STEP      L**3/T
     ------------------                 ------------------------

           IN:                                      IN:
           ---                                      ---
             STORAGE =           0.0000               STORAGE =           0.0000
       CONSTANT HEAD =         100.0000         CONSTANT HEAD =         100.0000
               WELLS =           0.0000                 WELLS =           0.0000

            TOTAL IN =         100.0000              TOTAL IN =         100.0000

          OUT:                                     OUT:
          ----                                     ----
             STORAGE =           0.0000               STORAGE =           0.0000
       CONSTANT HEAD =           0.0000         CONSTANT HEAD =           0.0000
               WELLS =         100.0000                 WELLS =         100.0000

           TOTAL OUT =         100.0000             TOTAL OUT =         100.0000

            IN - OUT =      -3.8147E-05              IN - OUT =      -3.8147E-05

 PERCENT DISCREPANCY =          -0.00     PERCENT DISCREPANCY =          -0.00






         TIME SUMMARY AT END OF TIME STEP    1 IN STRESS PERIOD    1
                    SECONDS     MINUTES      HOURS       DAYS        YEARS
                    -----------------------------------------------------------
   TIME STEP LENGTH  86400.      1440.0      24.000      1.0000     2.73785E-03
 STRESS PERIOD TIME  86400.      1440.0      24.000      1.0000     2.73785E-03
         TOTAL TIME  86400.      1440.0      24.000      1.0000     2.73785E-03
1

 Run end date and time (yyyy/mm/dd hh:mm:ss): 2022/04/04 19:39:16
 Elapsed run time:  0.879 Seconds

